
---------- Begin Simulation Statistics ----------
simSeconds                                   1.812486                       # Number of seconds simulated (Second)
simTicks                                 1812485627000                       # Number of ticks simulated (Tick)
finalTick                                1812485627000                       # Number of ticks from beginning of simulation (restored from checkpoints and never reset) (Tick)
simFreq                                  1000000000000                       # The number of ticks per simulated second ((Tick/Second))
hostSeconds                                    904.27                       # Real time elapsed on the host (Second)
hostTickRate                               2004364051                       # The number of ticks simulated per host second (ticks/s) ((Tick/Second))
hostMemory                                    1057364                       # Number of bytes of host memory used (Byte)
simInsts                                    469662078                       # Number of instructions simulated (Count)
simOps                                      688841994                       # Number of ops (including micro ops) simulated (Count)
hostInstRate                                   519380                       # Simulator instruction rate (inst/s) ((Count/Second))
hostOpRate                                     761762                       # Simulator op (including micro ops) rate (op/s) ((Count/Second))
system.clk_domain.clock                          1000                       # Clock period in ticks (Tick)
system.clk_domain.voltage_domain.voltage            1                       # Voltage in Volts (Volt)
system.cpu.numCycles                       1812485627                       # Number of cpu cycles simulated (Cycle)
system.cpu.cpi                               3.859125                       # CPI: cycles per instruction (core level) ((Cycle/Count))
system.cpu.ipc                               0.259126                       # IPC: instructions per cycle (core level) ((Count/Cycle))
system.cpu.numWorkItemsStarted                      0                       # Number of work items this cpu started (Count)
system.cpu.numWorkItemsCompleted                    0                       # Number of work items this cpu completed (Count)
system.cpu.commitStats0.numInsts            469662386                       # Number of instructions committed (thread level) (Count)
system.cpu.commitStats0.numOps              688842304                       # Number of ops (including micro ops) committed (thread level) (Count)
system.cpu.commitStats0.numInstsNotNOP              0                       # Number of instructions committed excluding NOPs or prefetches (Count)
system.cpu.commitStats0.numOpsNotNOP                0                       # Number of Ops (including micro ops) Simulated (Count)
system.cpu.commitStats0.cpi                  3.859125                       # CPI: cycles per instruction (thread level) ((Cycle/Count))
system.cpu.commitStats0.ipc                  0.259126                       # IPC: instructions per cycle (thread level) ((Count/Cycle))
system.cpu.commitStats0.numMemRefs                  0                       # Number of memory references committed (Count)
system.cpu.commitStats0.numFpInsts          138949730                       # Number of float instructions (Count)
system.cpu.commitStats0.numIntInsts         603113720                       # Number of integer instructions (Count)
system.cpu.commitStats0.numLoadInsts        202836645                       # Number of load instructions (Count)
system.cpu.commitStats0.numStoreInsts        21606840                       # Number of store instructions (Count)
system.cpu.commitStats0.numVecInsts                 0                       # Number of vector instructions (Count)
system.cpu.commitStats0.committedInstType::No_OpClass          289      0.00%      0.00% # Class of committed instruction. (Count)
system.cpu.commitStats0.committedInstType::IntAlu    366764306     53.24%     53.24% # Class of committed instruction. (Count)
system.cpu.commitStats0.committedInstType::IntMult     32009644      4.65%     57.89% # Class of committed instruction. (Count)
system.cpu.commitStats0.committedInstType::IntDiv      1017518      0.15%     58.04% # Class of committed instruction. (Count)
system.cpu.commitStats0.committedInstType::FloatAdd     31724150      4.61%     62.64% # Class of committed instruction. (Count)
system.cpu.commitStats0.committedInstType::FloatCmp            0      0.00%     62.64% # Class of committed instruction. (Count)
system.cpu.commitStats0.committedInstType::FloatCvt            0      0.00%     62.64% # Class of committed instruction. (Count)
system.cpu.commitStats0.committedInstType::FloatMult            0      0.00%     62.64% # Class of committed instruction. (Count)
system.cpu.commitStats0.committedInstType::FloatMultAcc            0      0.00%     62.64% # Class of committed instruction. (Count)
system.cpu.commitStats0.committedInstType::FloatDiv            0      0.00%     62.64% # Class of committed instruction. (Count)
system.cpu.commitStats0.committedInstType::FloatMisc            0      0.00%     62.64% # Class of committed instruction. (Count)
system.cpu.commitStats0.committedInstType::FloatSqrt            0      0.00%     62.64% # Class of committed instruction. (Count)
system.cpu.commitStats0.committedInstType::SimdAdd           10      0.00%     62.64% # Class of committed instruction. (Count)
system.cpu.commitStats0.committedInstType::SimdAddAcc            0      0.00%     62.64% # Class of committed instruction. (Count)
system.cpu.commitStats0.committedInstType::SimdAlu       579423      0.08%     62.73% # Class of committed instruction. (Count)
system.cpu.commitStats0.committedInstType::SimdCmp            0      0.00%     62.73% # Class of committed instruction. (Count)
system.cpu.commitStats0.committedInstType::SimdCvt           60      0.00%     62.73% # Class of committed instruction. (Count)
system.cpu.commitStats0.committedInstType::SimdMisc       145016      0.02%     62.75% # Class of committed instruction. (Count)
system.cpu.commitStats0.committedInstType::SimdMult            0      0.00%     62.75% # Class of committed instruction. (Count)
system.cpu.commitStats0.committedInstType::SimdMultAcc            0      0.00%     62.75% # Class of committed instruction. (Count)
system.cpu.commitStats0.committedInstType::SimdMatMultAcc            0      0.00%     62.75% # Class of committed instruction. (Count)
system.cpu.commitStats0.committedInstType::SimdShift            3      0.00%     62.75% # Class of committed instruction. (Count)
system.cpu.commitStats0.committedInstType::SimdShiftAcc            0      0.00%     62.75% # Class of committed instruction. (Count)
system.cpu.commitStats0.committedInstType::SimdDiv            0      0.00%     62.75% # Class of committed instruction. (Count)
system.cpu.commitStats0.committedInstType::SimdSqrt            0      0.00%     62.75% # Class of committed instruction. (Count)
system.cpu.commitStats0.committedInstType::SimdFloatAdd     10560000      1.53%     64.28% # Class of committed instruction. (Count)
system.cpu.commitStats0.committedInstType::SimdFloatAlu            0      0.00%     64.28% # Class of committed instruction. (Count)
system.cpu.commitStats0.committedInstType::SimdFloatCmp            0      0.00%     64.28% # Class of committed instruction. (Count)
system.cpu.commitStats0.committedInstType::SimdFloatCvt       289600      0.04%     64.32% # Class of committed instruction. (Count)
system.cpu.commitStats0.committedInstType::SimdFloatDiv       144800      0.02%     64.34% # Class of committed instruction. (Count)
system.cpu.commitStats0.committedInstType::SimdFloatMisc            0      0.00%     64.34% # Class of committed instruction. (Count)
system.cpu.commitStats0.committedInstType::SimdFloatMult     21164000      3.07%     67.42% # Class of committed instruction. (Count)
system.cpu.commitStats0.committedInstType::SimdFloatMultAcc            0      0.00%     67.42% # Class of committed instruction. (Count)
system.cpu.commitStats0.committedInstType::SimdFloatMatMultAcc            0      0.00%     67.42% # Class of committed instruction. (Count)
system.cpu.commitStats0.committedInstType::SimdFloatSqrt            0      0.00%     67.42% # Class of committed instruction. (Count)
system.cpu.commitStats0.committedInstType::SimdReduceAdd            0      0.00%     67.42% # Class of committed instruction. (Count)
system.cpu.commitStats0.committedInstType::SimdReduceAlu            0      0.00%     67.42% # Class of committed instruction. (Count)
system.cpu.commitStats0.committedInstType::SimdReduceCmp            0      0.00%     67.42% # Class of committed instruction. (Count)
system.cpu.commitStats0.committedInstType::SimdFloatReduceAdd            0      0.00%     67.42% # Class of committed instruction. (Count)
system.cpu.commitStats0.committedInstType::SimdFloatReduceCmp            0      0.00%     67.42% # Class of committed instruction. (Count)
system.cpu.commitStats0.committedInstType::SimdAes            0      0.00%     67.42% # Class of committed instruction. (Count)
system.cpu.commitStats0.committedInstType::SimdAesMix            0      0.00%     67.42% # Class of committed instruction. (Count)
system.cpu.commitStats0.committedInstType::SimdSha1Hash            0      0.00%     67.42% # Class of committed instruction. (Count)
system.cpu.commitStats0.committedInstType::SimdSha1Hash2            0      0.00%     67.42% # Class of committed instruction. (Count)
system.cpu.commitStats0.committedInstType::SimdSha256Hash            0      0.00%     67.42% # Class of committed instruction. (Count)
system.cpu.commitStats0.committedInstType::SimdSha256Hash2            0      0.00%     67.42% # Class of committed instruction. (Count)
system.cpu.commitStats0.committedInstType::SimdShaSigma2            0      0.00%     67.42% # Class of committed instruction. (Count)
system.cpu.commitStats0.committedInstType::SimdShaSigma3            0      0.00%     67.42% # Class of committed instruction. (Count)
system.cpu.commitStats0.committedInstType::SimdPredAlu            0      0.00%     67.42% # Class of committed instruction. (Count)
system.cpu.commitStats0.committedInstType::Matrix            0      0.00%     67.42% # Class of committed instruction. (Count)
system.cpu.commitStats0.committedInstType::MatrixMov            0      0.00%     67.42% # Class of committed instruction. (Count)
system.cpu.commitStats0.committedInstType::MatrixOP            0      0.00%     67.42% # Class of committed instruction. (Count)
system.cpu.commitStats0.committedInstType::MemRead    160363729     23.28%     90.70% # Class of committed instruction. (Count)
system.cpu.commitStats0.committedInstType::MemWrite     10857237      1.58%     92.27% # Class of committed instruction. (Count)
system.cpu.commitStats0.committedInstType::FloatMemRead     42472916      6.17%     98.44% # Class of committed instruction. (Count)
system.cpu.commitStats0.committedInstType::FloatMemWrite     10749603      1.56%    100.00% # Class of committed instruction. (Count)
system.cpu.commitStats0.committedInstType::IprAccess            0      0.00%    100.00% # Class of committed instruction. (Count)
system.cpu.commitStats0.committedInstType::InstPrefetch            0      0.00%    100.00% # Class of committed instruction. (Count)
system.cpu.commitStats0.committedInstType::VectorUnitStrideLoad            0      0.00%    100.00% # Class of committed instruction. (Count)
system.cpu.commitStats0.committedInstType::VectorUnitStrideStore            0      0.00%    100.00% # Class of committed instruction. (Count)
system.cpu.commitStats0.committedInstType::VectorUnitStrideMaskLoad            0      0.00%    100.00% # Class of committed instruction. (Count)
system.cpu.commitStats0.committedInstType::VectorUnitStrideMaskStore            0      0.00%    100.00% # Class of committed instruction. (Count)
system.cpu.commitStats0.committedInstType::VectorStridedLoad            0      0.00%    100.00% # Class of committed instruction. (Count)
system.cpu.commitStats0.committedInstType::VectorStridedStore            0      0.00%    100.00% # Class of committed instruction. (Count)
system.cpu.commitStats0.committedInstType::VectorIndexedLoad            0      0.00%    100.00% # Class of committed instruction. (Count)
system.cpu.commitStats0.committedInstType::VectorIndexedStore            0      0.00%    100.00% # Class of committed instruction. (Count)
system.cpu.commitStats0.committedInstType::VectorUnitStrideFaultOnlyFirstLoad            0      0.00%    100.00% # Class of committed instruction. (Count)
system.cpu.commitStats0.committedInstType::VectorWholeRegisterLoad            0      0.00%    100.00% # Class of committed instruction. (Count)
system.cpu.commitStats0.committedInstType::VectorWholeRegisterStore            0      0.00%    100.00% # Class of committed instruction. (Count)
system.cpu.commitStats0.committedInstType::VectorIntegerArith            0      0.00%    100.00% # Class of committed instruction. (Count)
system.cpu.commitStats0.committedInstType::VectorFloatArith            0      0.00%    100.00% # Class of committed instruction. (Count)
system.cpu.commitStats0.committedInstType::VectorFloatConvert            0      0.00%    100.00% # Class of committed instruction. (Count)
system.cpu.commitStats0.committedInstType::VectorIntegerReduce            0      0.00%    100.00% # Class of committed instruction. (Count)
system.cpu.commitStats0.committedInstType::VectorFloatReduce            0      0.00%    100.00% # Class of committed instruction. (Count)
system.cpu.commitStats0.committedInstType::VectorMisc            0      0.00%    100.00% # Class of committed instruction. (Count)
system.cpu.commitStats0.committedInstType::VectorIntegerExtension            0      0.00%    100.00% # Class of committed instruction. (Count)
system.cpu.commitStats0.committedInstType::VectorConfig            0      0.00%    100.00% # Class of committed instruction. (Count)
system.cpu.commitStats0.committedInstType::total    688842304                       # Class of committed instruction. (Count)
system.cpu.commitStats0.committedControl::IsControl     11075876                       # Class of control type instructions committed (Count)
system.cpu.commitStats0.committedControl::IsDirectControl     11071183                       # Class of control type instructions committed (Count)
system.cpu.commitStats0.committedControl::IsIndirectControl         4693                       # Class of control type instructions committed (Count)
system.cpu.commitStats0.committedControl::IsCondControl     11016282                       # Class of control type instructions committed (Count)
system.cpu.commitStats0.committedControl::IsUncondControl        59594                       # Class of control type instructions committed (Count)
system.cpu.commitStats0.committedControl::IsCall         2452                       # Class of control type instructions committed (Count)
system.cpu.commitStats0.committedControl::IsReturn         2447                       # Class of control type instructions committed (Count)
system.cpu.dcache.demandHits::cpu.data      222875131                       # number of demand (read+write) hits (Count)
system.cpu.dcache.demandHits::total         222875131                       # number of demand (read+write) hits (Count)
system.cpu.dcache.overallHits::cpu.data     222875131                       # number of overall hits (Count)
system.cpu.dcache.overallHits::total        222875131                       # number of overall hits (Count)
system.cpu.dcache.demandMisses::cpu.data      1567981                       # number of demand (read+write) misses (Count)
system.cpu.dcache.demandMisses::total         1567981                       # number of demand (read+write) misses (Count)
system.cpu.dcache.overallMisses::cpu.data      1567981                       # number of overall misses (Count)
system.cpu.dcache.overallMisses::total        1567981                       # number of overall misses (Count)
system.cpu.dcache.demandMissLatency::cpu.data 149885775000                       # number of demand (read+write) miss ticks (Tick)
system.cpu.dcache.demandMissLatency::total 149885775000                       # number of demand (read+write) miss ticks (Tick)
system.cpu.dcache.overallMissLatency::cpu.data 149885775000                       # number of overall miss ticks (Tick)
system.cpu.dcache.overallMissLatency::total 149885775000                       # number of overall miss ticks (Tick)
system.cpu.dcache.demandAccesses::cpu.data    224443112                       # number of demand (read+write) accesses (Count)
system.cpu.dcache.demandAccesses::total     224443112                       # number of demand (read+write) accesses (Count)
system.cpu.dcache.overallAccesses::cpu.data    224443112                       # number of overall (read+write) accesses (Count)
system.cpu.dcache.overallAccesses::total    224443112                       # number of overall (read+write) accesses (Count)
system.cpu.dcache.demandMissRate::cpu.data     0.006986                       # miss rate for demand accesses (Ratio)
system.cpu.dcache.demandMissRate::total      0.006986                       # miss rate for demand accesses (Ratio)
system.cpu.dcache.overallMissRate::cpu.data     0.006986                       # miss rate for overall accesses (Ratio)
system.cpu.dcache.overallMissRate::total     0.006986                       # miss rate for overall accesses (Ratio)
system.cpu.dcache.demandAvgMissLatency::cpu.data 95591.576046                       # average overall miss latency in ticks ((Tick/Count))
system.cpu.dcache.demandAvgMissLatency::total 95591.576046                       # average overall miss latency in ticks ((Tick/Count))
system.cpu.dcache.overallAvgMissLatency::cpu.data 95591.576046                       # average overall miss latency ((Tick/Count))
system.cpu.dcache.overallAvgMissLatency::total 95591.576046                       # average overall miss latency ((Tick/Count))
system.cpu.dcache.blockedCycles::no_mshrs            0                       # number of cycles access was blocked (Cycle)
system.cpu.dcache.blockedCycles::no_targets            0                       # number of cycles access was blocked (Cycle)
system.cpu.dcache.blockedCauses::no_mshrs            0                       # number of times access was blocked (Count)
system.cpu.dcache.blockedCauses::no_targets            0                       # number of times access was blocked (Count)
system.cpu.dcache.avgBlocked::no_mshrs            nan                       # average number of cycles each access was blocked ((Cycle/Count))
system.cpu.dcache.avgBlocked::no_targets          nan                       # average number of cycles each access was blocked ((Cycle/Count))
system.cpu.dcache.writebacks::writebacks       172427                       # number of writebacks (Count)
system.cpu.dcache.writebacks::total            172427                       # number of writebacks (Count)
system.cpu.dcache.demandMshrMisses::cpu.data      1567981                       # number of demand (read+write) MSHR misses (Count)
system.cpu.dcache.demandMshrMisses::total      1567981                       # number of demand (read+write) MSHR misses (Count)
system.cpu.dcache.overallMshrMisses::cpu.data      1567981                       # number of overall MSHR misses (Count)
system.cpu.dcache.overallMshrMisses::total      1567981                       # number of overall MSHR misses (Count)
system.cpu.dcache.demandMshrMissLatency::cpu.data 146749813000                       # number of demand (read+write) MSHR miss ticks (Tick)
system.cpu.dcache.demandMshrMissLatency::total 146749813000                       # number of demand (read+write) MSHR miss ticks (Tick)
system.cpu.dcache.overallMshrMissLatency::cpu.data 146749813000                       # number of overall MSHR miss ticks (Tick)
system.cpu.dcache.overallMshrMissLatency::total 146749813000                       # number of overall MSHR miss ticks (Tick)
system.cpu.dcache.demandMshrMissRate::cpu.data     0.006986                       # mshr miss ratio for demand accesses (Ratio)
system.cpu.dcache.demandMshrMissRate::total     0.006986                       # mshr miss ratio for demand accesses (Ratio)
system.cpu.dcache.overallMshrMissRate::cpu.data     0.006986                       # mshr miss ratio for overall accesses (Ratio)
system.cpu.dcache.overallMshrMissRate::total     0.006986                       # mshr miss ratio for overall accesses (Ratio)
system.cpu.dcache.demandAvgMshrMissLatency::cpu.data 93591.576046                       # average overall mshr miss latency ((Tick/Count))
system.cpu.dcache.demandAvgMshrMissLatency::total 93591.576046                       # average overall mshr miss latency ((Tick/Count))
system.cpu.dcache.overallAvgMshrMissLatency::cpu.data 93591.576046                       # average overall mshr miss latency ((Tick/Count))
system.cpu.dcache.overallAvgMshrMissLatency::total 93591.576046                       # average overall mshr miss latency ((Tick/Count))
system.cpu.dcache.replacements                1566960                       # number of replacements (Count)
system.cpu.dcache.LockedRMWReadReq.hits::cpu.data           39                       # number of LockedRMWReadReq hits (Count)
system.cpu.dcache.LockedRMWReadReq.hits::total           39                       # number of LockedRMWReadReq hits (Count)
system.cpu.dcache.LockedRMWReadReq.misses::cpu.data            3                       # number of LockedRMWReadReq misses (Count)
system.cpu.dcache.LockedRMWReadReq.misses::total            3                       # number of LockedRMWReadReq misses (Count)
system.cpu.dcache.LockedRMWReadReq.missLatency::cpu.data       327000                       # number of LockedRMWReadReq miss ticks (Tick)
system.cpu.dcache.LockedRMWReadReq.missLatency::total       327000                       # number of LockedRMWReadReq miss ticks (Tick)
system.cpu.dcache.LockedRMWReadReq.accesses::cpu.data           42                       # number of LockedRMWReadReq accesses(hits+misses) (Count)
system.cpu.dcache.LockedRMWReadReq.accesses::total           42                       # number of LockedRMWReadReq accesses(hits+misses) (Count)
system.cpu.dcache.LockedRMWReadReq.missRate::cpu.data     0.071429                       # miss rate for LockedRMWReadReq accesses (Ratio)
system.cpu.dcache.LockedRMWReadReq.missRate::total     0.071429                       # miss rate for LockedRMWReadReq accesses (Ratio)
system.cpu.dcache.LockedRMWReadReq.avgMissLatency::cpu.data       109000                       # average LockedRMWReadReq miss latency ((Tick/Count))
system.cpu.dcache.LockedRMWReadReq.avgMissLatency::total       109000                       # average LockedRMWReadReq miss latency ((Tick/Count))
system.cpu.dcache.LockedRMWReadReq.mshrMisses::cpu.data            3                       # number of LockedRMWReadReq MSHR misses (Count)
system.cpu.dcache.LockedRMWReadReq.mshrMisses::total            3                       # number of LockedRMWReadReq MSHR misses (Count)
system.cpu.dcache.LockedRMWReadReq.mshrMissLatency::cpu.data       726000                       # number of LockedRMWReadReq MSHR miss ticks (Tick)
system.cpu.dcache.LockedRMWReadReq.mshrMissLatency::total       726000                       # number of LockedRMWReadReq MSHR miss ticks (Tick)
system.cpu.dcache.LockedRMWReadReq.mshrMissRate::cpu.data     0.071429                       # mshr miss rate for LockedRMWReadReq accesses (Ratio)
system.cpu.dcache.LockedRMWReadReq.mshrMissRate::total     0.071429                       # mshr miss rate for LockedRMWReadReq accesses (Ratio)
system.cpu.dcache.LockedRMWReadReq.avgMshrMissLatency::cpu.data       242000                       # average LockedRMWReadReq mshr miss latency ((Tick/Count))
system.cpu.dcache.LockedRMWReadReq.avgMshrMissLatency::total       242000                       # average LockedRMWReadReq mshr miss latency ((Tick/Count))
system.cpu.dcache.LockedRMWWriteReq.hits::cpu.data           42                       # number of LockedRMWWriteReq hits (Count)
system.cpu.dcache.LockedRMWWriteReq.hits::total           42                       # number of LockedRMWWriteReq hits (Count)
system.cpu.dcache.LockedRMWWriteReq.accesses::cpu.data           42                       # number of LockedRMWWriteReq accesses(hits+misses) (Count)
system.cpu.dcache.LockedRMWWriteReq.accesses::total           42                       # number of LockedRMWWriteReq accesses(hits+misses) (Count)
system.cpu.dcache.ReadReq.hits::cpu.data    201315049                       # number of ReadReq hits (Count)
system.cpu.dcache.ReadReq.hits::total       201315049                       # number of ReadReq hits (Count)
system.cpu.dcache.ReadReq.misses::cpu.data      1521554                       # number of ReadReq misses (Count)
system.cpu.dcache.ReadReq.misses::total       1521554                       # number of ReadReq misses (Count)
system.cpu.dcache.ReadReq.missLatency::cpu.data 147232849000                       # number of ReadReq miss ticks (Tick)
system.cpu.dcache.ReadReq.missLatency::total 147232849000                       # number of ReadReq miss ticks (Tick)
system.cpu.dcache.ReadReq.accesses::cpu.data    202836603                       # number of ReadReq accesses(hits+misses) (Count)
system.cpu.dcache.ReadReq.accesses::total    202836603                       # number of ReadReq accesses(hits+misses) (Count)
system.cpu.dcache.ReadReq.missRate::cpu.data     0.007501                       # miss rate for ReadReq accesses (Ratio)
system.cpu.dcache.ReadReq.missRate::total     0.007501                       # miss rate for ReadReq accesses (Ratio)
system.cpu.dcache.ReadReq.avgMissLatency::cpu.data 96764.787185                       # average ReadReq miss latency ((Tick/Count))
system.cpu.dcache.ReadReq.avgMissLatency::total 96764.787185                       # average ReadReq miss latency ((Tick/Count))
system.cpu.dcache.ReadReq.mshrMisses::cpu.data      1521554                       # number of ReadReq MSHR misses (Count)
system.cpu.dcache.ReadReq.mshrMisses::total      1521554                       # number of ReadReq MSHR misses (Count)
system.cpu.dcache.ReadReq.mshrMissLatency::cpu.data 144189741000                       # number of ReadReq MSHR miss ticks (Tick)
system.cpu.dcache.ReadReq.mshrMissLatency::total 144189741000                       # number of ReadReq MSHR miss ticks (Tick)
system.cpu.dcache.ReadReq.mshrMissRate::cpu.data     0.007501                       # mshr miss rate for ReadReq accesses (Ratio)
system.cpu.dcache.ReadReq.mshrMissRate::total     0.007501                       # mshr miss rate for ReadReq accesses (Ratio)
system.cpu.dcache.ReadReq.avgMshrMissLatency::cpu.data 94764.787185                       # average ReadReq mshr miss latency ((Tick/Count))
system.cpu.dcache.ReadReq.avgMshrMissLatency::total 94764.787185                       # average ReadReq mshr miss latency ((Tick/Count))
system.cpu.dcache.WriteReq.hits::cpu.data     21560082                       # number of WriteReq hits (Count)
system.cpu.dcache.WriteReq.hits::total       21560082                       # number of WriteReq hits (Count)
system.cpu.dcache.WriteReq.misses::cpu.data        46427                       # number of WriteReq misses (Count)
system.cpu.dcache.WriteReq.misses::total        46427                       # number of WriteReq misses (Count)
system.cpu.dcache.WriteReq.missLatency::cpu.data   2652926000                       # number of WriteReq miss ticks (Tick)
system.cpu.dcache.WriteReq.missLatency::total   2652926000                       # number of WriteReq miss ticks (Tick)
system.cpu.dcache.WriteReq.accesses::cpu.data     21606509                       # number of WriteReq accesses(hits+misses) (Count)
system.cpu.dcache.WriteReq.accesses::total     21606509                       # number of WriteReq accesses(hits+misses) (Count)
system.cpu.dcache.WriteReq.missRate::cpu.data     0.002149                       # miss rate for WriteReq accesses (Ratio)
system.cpu.dcache.WriteReq.missRate::total     0.002149                       # miss rate for WriteReq accesses (Ratio)
system.cpu.dcache.WriteReq.avgMissLatency::cpu.data 57141.878648                       # average WriteReq miss latency ((Tick/Count))
system.cpu.dcache.WriteReq.avgMissLatency::total 57141.878648                       # average WriteReq miss latency ((Tick/Count))
system.cpu.dcache.WriteReq.mshrMisses::cpu.data        46427                       # number of WriteReq MSHR misses (Count)
system.cpu.dcache.WriteReq.mshrMisses::total        46427                       # number of WriteReq MSHR misses (Count)
system.cpu.dcache.WriteReq.mshrMissLatency::cpu.data   2560072000                       # number of WriteReq MSHR miss ticks (Tick)
system.cpu.dcache.WriteReq.mshrMissLatency::total   2560072000                       # number of WriteReq MSHR miss ticks (Tick)
system.cpu.dcache.WriteReq.mshrMissRate::cpu.data     0.002149                       # mshr miss rate for WriteReq accesses (Ratio)
system.cpu.dcache.WriteReq.mshrMissRate::total     0.002149                       # mshr miss rate for WriteReq accesses (Ratio)
system.cpu.dcache.WriteReq.avgMshrMissLatency::cpu.data 55141.878648                       # average WriteReq mshr miss latency ((Tick/Count))
system.cpu.dcache.WriteReq.avgMshrMissLatency::total 55141.878648                       # average WriteReq mshr miss latency ((Tick/Count))
system.cpu.dcache.power_state.pwrStateResidencyTicks::UNDEFINED 1812485627000                       # Cumulative time (in ticks) in various power states (Tick)
system.cpu.dcache.tags.tagsInUse          1023.739621                       # Average ticks per tags in use ((Tick/Count))
system.cpu.dcache.tags.totalRefs            224443196                       # Total number of references to valid blocks. (Count)
system.cpu.dcache.tags.sampledRefs            1567984                       # Sample count of references to valid blocks. (Count)
system.cpu.dcache.tags.avgRefs             143.141254                       # Average number of references to valid blocks. ((Count/Count))
system.cpu.dcache.tags.warmupTick              224000                       # The tick when the warmup percentage was hit. (Tick)
system.cpu.dcache.tags.occupancies::cpu.data  1023.739621                       # Average occupied blocks per tick, per requestor ((Count/Tick))
system.cpu.dcache.tags.avgOccs::cpu.data     0.999746                       # Average percentage of cache occupancy ((Ratio/Tick))
system.cpu.dcache.tags.avgOccs::total        0.999746                       # Average percentage of cache occupancy ((Ratio/Tick))
system.cpu.dcache.tags.occupanciesTaskId::1024         1024                       # Occupied blocks per task id (Count)
system.cpu.dcache.tags.ageTaskId_1024::0           25                       # Occupied blocks per task id, per block age (Count)
system.cpu.dcache.tags.ageTaskId_1024::1           76                       # Occupied blocks per task id, per block age (Count)
system.cpu.dcache.tags.ageTaskId_1024::2          630                       # Occupied blocks per task id, per block age (Count)
system.cpu.dcache.tags.ageTaskId_1024::3          293                       # Occupied blocks per task id, per block age (Count)
system.cpu.dcache.tags.ratioOccsTaskId::1024            1                       # Ratio of occupied blocks and all blocks, per task id (Ratio)
system.cpu.dcache.tags.tagAccesses          226011180                       # Number of tag accesses (Count)
system.cpu.dcache.tags.dataAccesses         226011180                       # Number of data accesses (Count)
system.cpu.dcache.tags.power_state.pwrStateResidencyTicks::UNDEFINED 1812485627000                       # Cumulative time (in ticks) in various power states (Tick)
system.cpu.exec_context.thread_0.numMatAluAccesses            0                       # Number of matrix alu accesses (Count)
system.cpu.exec_context.thread_0.numCallsReturns         4899                       # Number of times a function call or return occured (Count)
system.cpu.exec_context.thread_0.numMatInsts            0                       # Number of matrix instructions (Count)
system.cpu.exec_context.thread_0.numIdleCycles     0.001000                       # Number of idle cycles (Cycle)
system.cpu.exec_context.thread_0.numBusyCycles 1812485626.999000                       # Number of busy cycles (Cycle)
system.cpu.exec_context.thread_0.notIdleFraction     1.000000                       # Percentage of non-idle cycles (Ratio)
system.cpu.exec_context.thread_0.idleFraction     0.000000                       # Percentage of idle cycles (Ratio)
system.cpu.executeStats0.numInsts                   0                       # Number of executed instructions (Count)
system.cpu.executeStats0.numNop                     0                       # Number of nop insts executed (Count)
system.cpu.executeStats0.numBranches                0                       # Number of branches executed (Count)
system.cpu.executeStats0.numLoadInsts               0                       # Number of load instructions executed (Count)
system.cpu.executeStats0.numStoreInsts      224443485                       # Number of stores executed (Count)
system.cpu.executeStats0.instRate                   0                       # Inst execution rate ((Count/Cycle))
system.cpu.executeStats0.numFpAluAccesses    138949730                       # Number of float alu accesses (Count)
system.cpu.executeStats0.numFpRegReads      150479605                       # Number of times the floating registers were read (Count)
system.cpu.executeStats0.numFpRegWrites     128200076                       # Number of times the floating registers were written (Count)
system.cpu.executeStats0.numIntAluAccesses    603113720                       # Number of integer alu accesses (Count)
system.cpu.executeStats0.numIntRegReads     865343941                       # Number of times the integer registers were read (Count)
system.cpu.executeStats0.numIntRegWrites    518688385                       # Number of times the integer registers were written (Count)
system.cpu.executeStats0.numMemRefs         224443485                       # Number of memory refs (Count)
system.cpu.executeStats0.numMiscRegReads    246301643                       # Number of times the Misc registers were read (Count)
system.cpu.executeStats0.numVecAluAccesses            0                       # Number of vector alu accesses (Count)
system.cpu.executeStats0.numDiscardedOps            0                       # Number of ops (including micro ops) which were discarded before commit (Count)
system.cpu.fetchStats0.numInsts             469662386                       # Number of instructions fetched (thread level) (Count)
system.cpu.fetchStats0.numOps               688842304                       # Number of ops (including micro ops) fetched (thread level) (Count)
system.cpu.fetchStats0.fetchRate             0.259126                       # Number of inst fetches per cycle ((Count/Cycle))
system.cpu.fetchStats0.numBranches           11075876                       # Number of branches fetched (Count)
system.cpu.fetchStats0.branchRate            0.006111                       # Number of branch fetches per cycle (Ratio)
system.cpu.fetchStats0.numFetchSuspends             0                       # Number of times Execute suspended instruction fetching (Count)
system.cpu.icache.demandHits::cpu.inst      608395791                       # number of demand (read+write) hits (Count)
system.cpu.icache.demandHits::total         608395791                       # number of demand (read+write) hits (Count)
system.cpu.icache.overallHits::cpu.inst     608395791                       # number of overall hits (Count)
system.cpu.icache.overallHits::total        608395791                       # number of overall hits (Count)
system.cpu.icache.demandMisses::cpu.inst          557                       # number of demand (read+write) misses (Count)
system.cpu.icache.demandMisses::total             557                       # number of demand (read+write) misses (Count)
system.cpu.icache.overallMisses::cpu.inst          557                       # number of overall misses (Count)
system.cpu.icache.overallMisses::total            557                       # number of overall misses (Count)
system.cpu.icache.demandMissLatency::cpu.inst     57521000                       # number of demand (read+write) miss ticks (Tick)
system.cpu.icache.demandMissLatency::total     57521000                       # number of demand (read+write) miss ticks (Tick)
system.cpu.icache.overallMissLatency::cpu.inst     57521000                       # number of overall miss ticks (Tick)
system.cpu.icache.overallMissLatency::total     57521000                       # number of overall miss ticks (Tick)
system.cpu.icache.demandAccesses::cpu.inst    608396348                       # number of demand (read+write) accesses (Count)
system.cpu.icache.demandAccesses::total     608396348                       # number of demand (read+write) accesses (Count)
system.cpu.icache.overallAccesses::cpu.inst    608396348                       # number of overall (read+write) accesses (Count)
system.cpu.icache.overallAccesses::total    608396348                       # number of overall (read+write) accesses (Count)
system.cpu.icache.demandMissRate::cpu.inst     0.000001                       # miss rate for demand accesses (Ratio)
system.cpu.icache.demandMissRate::total      0.000001                       # miss rate for demand accesses (Ratio)
system.cpu.icache.overallMissRate::cpu.inst     0.000001                       # miss rate for overall accesses (Ratio)
system.cpu.icache.overallMissRate::total     0.000001                       # miss rate for overall accesses (Ratio)
system.cpu.icache.demandAvgMissLatency::cpu.inst 103269.299820                       # average overall miss latency in ticks ((Tick/Count))
system.cpu.icache.demandAvgMissLatency::total 103269.299820                       # average overall miss latency in ticks ((Tick/Count))
system.cpu.icache.overallAvgMissLatency::cpu.inst 103269.299820                       # average overall miss latency ((Tick/Count))
system.cpu.icache.overallAvgMissLatency::total 103269.299820                       # average overall miss latency ((Tick/Count))
system.cpu.icache.blockedCycles::no_mshrs            0                       # number of cycles access was blocked (Cycle)
system.cpu.icache.blockedCycles::no_targets            0                       # number of cycles access was blocked (Cycle)
system.cpu.icache.blockedCauses::no_mshrs            0                       # number of times access was blocked (Count)
system.cpu.icache.blockedCauses::no_targets            0                       # number of times access was blocked (Count)
system.cpu.icache.avgBlocked::no_mshrs            nan                       # average number of cycles each access was blocked ((Cycle/Count))
system.cpu.icache.avgBlocked::no_targets          nan                       # average number of cycles each access was blocked ((Cycle/Count))
system.cpu.icache.demandMshrMisses::cpu.inst          557                       # number of demand (read+write) MSHR misses (Count)
system.cpu.icache.demandMshrMisses::total          557                       # number of demand (read+write) MSHR misses (Count)
system.cpu.icache.overallMshrMisses::cpu.inst          557                       # number of overall MSHR misses (Count)
system.cpu.icache.overallMshrMisses::total          557                       # number of overall MSHR misses (Count)
system.cpu.icache.demandMshrMissLatency::cpu.inst     56407000                       # number of demand (read+write) MSHR miss ticks (Tick)
system.cpu.icache.demandMshrMissLatency::total     56407000                       # number of demand (read+write) MSHR miss ticks (Tick)
system.cpu.icache.overallMshrMissLatency::cpu.inst     56407000                       # number of overall MSHR miss ticks (Tick)
system.cpu.icache.overallMshrMissLatency::total     56407000                       # number of overall MSHR miss ticks (Tick)
system.cpu.icache.demandMshrMissRate::cpu.inst     0.000001                       # mshr miss ratio for demand accesses (Ratio)
system.cpu.icache.demandMshrMissRate::total     0.000001                       # mshr miss ratio for demand accesses (Ratio)
system.cpu.icache.overallMshrMissRate::cpu.inst     0.000001                       # mshr miss ratio for overall accesses (Ratio)
system.cpu.icache.overallMshrMissRate::total     0.000001                       # mshr miss ratio for overall accesses (Ratio)
system.cpu.icache.demandAvgMshrMissLatency::cpu.inst 101269.299820                       # average overall mshr miss latency ((Tick/Count))
system.cpu.icache.demandAvgMshrMissLatency::total 101269.299820                       # average overall mshr miss latency ((Tick/Count))
system.cpu.icache.overallAvgMshrMissLatency::cpu.inst 101269.299820                       # average overall mshr miss latency ((Tick/Count))
system.cpu.icache.overallAvgMshrMissLatency::total 101269.299820                       # average overall mshr miss latency ((Tick/Count))
system.cpu.icache.replacements                    109                       # number of replacements (Count)
system.cpu.icache.ReadReq.hits::cpu.inst    608395791                       # number of ReadReq hits (Count)
system.cpu.icache.ReadReq.hits::total       608395791                       # number of ReadReq hits (Count)
system.cpu.icache.ReadReq.misses::cpu.inst          557                       # number of ReadReq misses (Count)
system.cpu.icache.ReadReq.misses::total           557                       # number of ReadReq misses (Count)
system.cpu.icache.ReadReq.missLatency::cpu.inst     57521000                       # number of ReadReq miss ticks (Tick)
system.cpu.icache.ReadReq.missLatency::total     57521000                       # number of ReadReq miss ticks (Tick)
system.cpu.icache.ReadReq.accesses::cpu.inst    608396348                       # number of ReadReq accesses(hits+misses) (Count)
system.cpu.icache.ReadReq.accesses::total    608396348                       # number of ReadReq accesses(hits+misses) (Count)
system.cpu.icache.ReadReq.missRate::cpu.inst     0.000001                       # miss rate for ReadReq accesses (Ratio)
system.cpu.icache.ReadReq.missRate::total     0.000001                       # miss rate for ReadReq accesses (Ratio)
system.cpu.icache.ReadReq.avgMissLatency::cpu.inst 103269.299820                       # average ReadReq miss latency ((Tick/Count))
system.cpu.icache.ReadReq.avgMissLatency::total 103269.299820                       # average ReadReq miss latency ((Tick/Count))
system.cpu.icache.ReadReq.mshrMisses::cpu.inst          557                       # number of ReadReq MSHR misses (Count)
system.cpu.icache.ReadReq.mshrMisses::total          557                       # number of ReadReq MSHR misses (Count)
system.cpu.icache.ReadReq.mshrMissLatency::cpu.inst     56407000                       # number of ReadReq MSHR miss ticks (Tick)
system.cpu.icache.ReadReq.mshrMissLatency::total     56407000                       # number of ReadReq MSHR miss ticks (Tick)
system.cpu.icache.ReadReq.mshrMissRate::cpu.inst     0.000001                       # mshr miss rate for ReadReq accesses (Ratio)
system.cpu.icache.ReadReq.mshrMissRate::total     0.000001                       # mshr miss rate for ReadReq accesses (Ratio)
system.cpu.icache.ReadReq.avgMshrMissLatency::cpu.inst 101269.299820                       # average ReadReq mshr miss latency ((Tick/Count))
system.cpu.icache.ReadReq.avgMshrMissLatency::total 101269.299820                       # average ReadReq mshr miss latency ((Tick/Count))
system.cpu.icache.power_state.pwrStateResidencyTicks::UNDEFINED 1812485627000                       # Cumulative time (in ticks) in various power states (Tick)
system.cpu.icache.tags.tagsInUse           411.982006                       # Average ticks per tags in use ((Tick/Count))
system.cpu.icache.tags.totalRefs            608396348                       # Total number of references to valid blocks. (Count)
system.cpu.icache.tags.sampledRefs                557                       # Sample count of references to valid blocks. (Count)
system.cpu.icache.tags.avgRefs           1092273.515260                       # Average number of references to valid blocks. ((Count/Count))
system.cpu.icache.tags.warmupTick              107000                       # The tick when the warmup percentage was hit. (Tick)
system.cpu.icache.tags.occupancies::cpu.inst   411.982006                       # Average occupied blocks per tick, per requestor ((Count/Tick))
system.cpu.icache.tags.avgOccs::cpu.inst     0.804652                       # Average percentage of cache occupancy ((Ratio/Tick))
system.cpu.icache.tags.avgOccs::total        0.804652                       # Average percentage of cache occupancy ((Ratio/Tick))
system.cpu.icache.tags.occupanciesTaskId::1024          448                       # Occupied blocks per task id (Count)
system.cpu.icache.tags.ageTaskId_1024::0           48                       # Occupied blocks per task id, per block age (Count)
system.cpu.icache.tags.ageTaskId_1024::1           23                       # Occupied blocks per task id, per block age (Count)
system.cpu.icache.tags.ageTaskId_1024::4          377                       # Occupied blocks per task id, per block age (Count)
system.cpu.icache.tags.ratioOccsTaskId::1024     0.875000                       # Ratio of occupied blocks and all blocks, per task id (Ratio)
system.cpu.icache.tags.tagAccesses         2433585949                       # Number of tag accesses (Count)
system.cpu.icache.tags.dataAccesses        2433585949                       # Number of data accesses (Count)
system.cpu.icache.tags.power_state.pwrStateResidencyTicks::UNDEFINED 1812485627000                       # Cumulative time (in ticks) in various power states (Tick)
system.cpu.interrupts.clk_domain.clock          16000                       # Clock period in ticks (Tick)
system.cpu.mmu.dtb.rdAccesses               202836646                       # TLB accesses on read requests (Count)
system.cpu.mmu.dtb.wrAccesses                21606840                       # TLB accesses on write requests (Count)
system.cpu.mmu.dtb.rdMisses                     21026                       # TLB misses on read requests (Count)
system.cpu.mmu.dtb.wrMisses                       586                       # TLB misses on write requests (Count)
system.cpu.mmu.dtb.walker.power_state.pwrStateResidencyTicks::UNDEFINED 1812485627000                       # Cumulative time (in ticks) in various power states (Tick)
system.cpu.mmu.itb.rdAccesses                       0                       # TLB accesses on read requests (Count)
system.cpu.mmu.itb.wrAccesses               608396348                       # TLB accesses on write requests (Count)
system.cpu.mmu.itb.rdMisses                         0                       # TLB misses on read requests (Count)
system.cpu.mmu.itb.wrMisses                        65                       # TLB misses on write requests (Count)
system.cpu.mmu.itb.walker.power_state.pwrStateResidencyTicks::UNDEFINED 1812485627000                       # Cumulative time (in ticks) in various power states (Tick)
system.cpu.power_state.pwrStateResidencyTicks::ON 1812485627000                       # Cumulative time (in ticks) in various power states (Tick)
system.cpu.thread_0.numInsts                        0                       # Number of Instructions committed (Count)
system.cpu.thread_0.numOps                          0                       # Number of Ops committed (Count)
system.cpu.thread_0.numMemRefs                      0                       # Number of Memory References (Count)
system.cpu.workload.numSyscalls                    20                       # Number of system calls (Count)
system.l2bus.transDist::ReadResp              1522111                       # Transaction distribution (Count)
system.l2bus.transDist::WritebackDirty         196167                       # Transaction distribution (Count)
system.l2bus.transDist::CleanEvict            2717905                       # Transaction distribution (Count)
system.l2bus.transDist::ReadExReq               46430                       # Transaction distribution (Count)
system.l2bus.transDist::ReadExResp              46430                       # Transaction distribution (Count)
system.l2bus.transDist::ReadSharedReq         1522111                       # Transaction distribution (Count)
system.l2bus.pktCount_system.cpu.icache.mem_side_port::system.l2cache.cpu_side_port         1223                       # Packet count per connected requestor and responder (Count)
system.l2bus.pktCount_system.cpu.dcache.mem_side_port::system.l2cache.cpu_side_port      4702928                       # Packet count per connected requestor and responder (Count)
system.l2bus.pktCount::total                  4704151                       # Packet count per connected requestor and responder (Count)
system.l2bus.pktSize_system.cpu.icache.mem_side_port::system.l2cache.cpu_side_port        35648                       # Cumulative packet size per connected requestor and responder (Byte)
system.l2bus.pktSize_system.cpu.dcache.mem_side_port::system.l2cache.cpu_side_port    111386304                       # Cumulative packet size per connected requestor and responder (Byte)
system.l2bus.pktSize::total                 111421952                       # Cumulative packet size per connected requestor and responder (Byte)
system.l2bus.snoops                           1347003                       # Total snoops (Count)
system.l2bus.snoopTraffic                     1519360                       # Total snoop traffic (Byte)
system.l2bus.snoopFanout::samples             2915544                       # Request fanout histogram (Count)
system.l2bus.snoopFanout::mean               0.000145                       # Request fanout histogram (Count)
system.l2bus.snoopFanout::stdev              0.012030                       # Request fanout histogram (Count)
system.l2bus.snoopFanout::underflows                0      0.00%      0.00% # Request fanout histogram (Count)
system.l2bus.snoopFanout::0                   2915122     99.99%     99.99% # Request fanout histogram (Count)
system.l2bus.snoopFanout::1                       422      0.01%    100.00% # Request fanout histogram (Count)
system.l2bus.snoopFanout::2                         0      0.00%    100.00% # Request fanout histogram (Count)
system.l2bus.snoopFanout::overflows                 0      0.00%    100.00% # Request fanout histogram (Count)
system.l2bus.snoopFanout::min_value                 0                       # Request fanout histogram (Count)
system.l2bus.snoopFanout::max_value                 1                       # Request fanout histogram (Count)
system.l2bus.snoopFanout::total               2915544                       # Request fanout histogram (Count)
system.l2bus.power_state.pwrStateResidencyTicks::UNDEFINED 1812485627000                       # Cumulative time (in ticks) in various power states (Tick)
system.l2bus.reqLayer0.occupancy           3480464000                       # Layer occupancy (ticks) (Tick)
system.l2bus.reqLayer0.utilization                0.0                       # Layer utilization (Ratio)
system.l2bus.respLayer0.occupancy             1671000                       # Layer occupancy (ticks) (Tick)
system.l2bus.respLayer0.utilization               0.0                       # Layer utilization (Ratio)
system.l2bus.respLayer1.occupancy          4703952000                       # Layer occupancy (ticks) (Tick)
system.l2bus.respLayer1.utilization               0.0                       # Layer utilization (Ratio)
system.l2bus.snoop_filter.totRequests         3135610                       # Total number of requests made to the snoop filter. (Count)
system.l2bus.snoop_filter.hitSingleRequests      1567069                       # Number of requests hitting in the snoop filter with a single holder of the requested data. (Count)
system.l2bus.snoop_filter.hitMultiRequests            0                       # Number of requests hitting in the snoop filter with multiple (>1) holders of the requested data. (Count)
system.l2bus.snoop_filter.totSnoops               422                       # Total number of snoops made to the snoop filter. (Count)
system.l2bus.snoop_filter.hitSingleSnoops          422                       # Number of snoops hitting in the snoop filter with a single holder of the requested data. (Count)
system.l2bus.snoop_filter.hitMultiSnoops            0                       # Number of snoops hitting in the snoop filter with multiple (>1) holders of the requested data. (Count)
system.l2cache.demandHits::cpu.data            217442                       # number of demand (read+write) hits (Count)
system.l2cache.demandHits::total               217442                       # number of demand (read+write) hits (Count)
system.l2cache.overallHits::cpu.data           217442                       # number of overall hits (Count)
system.l2cache.overallHits::total              217442                       # number of overall hits (Count)
system.l2cache.demandMisses::cpu.inst             557                       # number of demand (read+write) misses (Count)
system.l2cache.demandMisses::cpu.data         1350542                       # number of demand (read+write) misses (Count)
system.l2cache.demandMisses::total            1351099                       # number of demand (read+write) misses (Count)
system.l2cache.overallMisses::cpu.inst            557                       # number of overall misses (Count)
system.l2cache.overallMisses::cpu.data        1350542                       # number of overall misses (Count)
system.l2cache.overallMisses::total           1351099                       # number of overall misses (Count)
system.l2cache.demandMissLatency::cpu.inst     54736000                       # number of demand (read+write) miss ticks (Tick)
system.l2cache.demandMissLatency::cpu.data 136081474000                       # number of demand (read+write) miss ticks (Tick)
system.l2cache.demandMissLatency::total  136136210000                       # number of demand (read+write) miss ticks (Tick)
system.l2cache.overallMissLatency::cpu.inst     54736000                       # number of overall miss ticks (Tick)
system.l2cache.overallMissLatency::cpu.data 136081474000                       # number of overall miss ticks (Tick)
system.l2cache.overallMissLatency::total 136136210000                       # number of overall miss ticks (Tick)
system.l2cache.demandAccesses::cpu.inst           557                       # number of demand (read+write) accesses (Count)
system.l2cache.demandAccesses::cpu.data       1567984                       # number of demand (read+write) accesses (Count)
system.l2cache.demandAccesses::total          1568541                       # number of demand (read+write) accesses (Count)
system.l2cache.overallAccesses::cpu.inst          557                       # number of overall (read+write) accesses (Count)
system.l2cache.overallAccesses::cpu.data      1567984                       # number of overall (read+write) accesses (Count)
system.l2cache.overallAccesses::total         1568541                       # number of overall (read+write) accesses (Count)
system.l2cache.demandMissRate::cpu.inst             1                       # miss rate for demand accesses (Ratio)
system.l2cache.demandMissRate::cpu.data      0.861324                       # miss rate for demand accesses (Ratio)
system.l2cache.demandMissRate::total         0.861373                       # miss rate for demand accesses (Ratio)
system.l2cache.overallMissRate::cpu.inst            1                       # miss rate for overall accesses (Ratio)
system.l2cache.overallMissRate::cpu.data     0.861324                       # miss rate for overall accesses (Ratio)
system.l2cache.overallMissRate::total        0.861373                       # miss rate for overall accesses (Ratio)
system.l2cache.demandAvgMissLatency::cpu.inst 98269.299820                       # average overall miss latency in ticks ((Tick/Count))
system.l2cache.demandAvgMissLatency::cpu.data 100760.638322                       # average overall miss latency in ticks ((Tick/Count))
system.l2cache.demandAvgMissLatency::total 100759.611250                       # average overall miss latency in ticks ((Tick/Count))
system.l2cache.overallAvgMissLatency::cpu.inst 98269.299820                       # average overall miss latency ((Tick/Count))
system.l2cache.overallAvgMissLatency::cpu.data 100760.638322                       # average overall miss latency ((Tick/Count))
system.l2cache.overallAvgMissLatency::total 100759.611250                       # average overall miss latency ((Tick/Count))
system.l2cache.blockedCycles::no_mshrs              0                       # number of cycles access was blocked (Cycle)
system.l2cache.blockedCycles::no_targets            0                       # number of cycles access was blocked (Cycle)
system.l2cache.blockedCauses::no_mshrs              0                       # number of times access was blocked (Count)
system.l2cache.blockedCauses::no_targets            0                       # number of times access was blocked (Count)
system.l2cache.avgBlocked::no_mshrs               nan                       # average number of cycles each access was blocked ((Cycle/Count))
system.l2cache.avgBlocked::no_targets             nan                       # average number of cycles each access was blocked ((Cycle/Count))
system.l2cache.writebacks::writebacks           23740                       # number of writebacks (Count)
system.l2cache.writebacks::total                23740                       # number of writebacks (Count)
system.l2cache.demandMshrMisses::cpu.inst          557                       # number of demand (read+write) MSHR misses (Count)
system.l2cache.demandMshrMisses::cpu.data      1350542                       # number of demand (read+write) MSHR misses (Count)
system.l2cache.demandMshrMisses::total        1351099                       # number of demand (read+write) MSHR misses (Count)
system.l2cache.overallMshrMisses::cpu.inst          557                       # number of overall MSHR misses (Count)
system.l2cache.overallMshrMisses::cpu.data      1350542                       # number of overall MSHR misses (Count)
system.l2cache.overallMshrMisses::total       1351099                       # number of overall MSHR misses (Count)
system.l2cache.demandMshrMissLatency::cpu.inst     43596000                       # number of demand (read+write) MSHR miss ticks (Tick)
system.l2cache.demandMshrMissLatency::cpu.data 109070634000                       # number of demand (read+write) MSHR miss ticks (Tick)
system.l2cache.demandMshrMissLatency::total 109114230000                       # number of demand (read+write) MSHR miss ticks (Tick)
system.l2cache.overallMshrMissLatency::cpu.inst     43596000                       # number of overall MSHR miss ticks (Tick)
system.l2cache.overallMshrMissLatency::cpu.data 109070634000                       # number of overall MSHR miss ticks (Tick)
system.l2cache.overallMshrMissLatency::total 109114230000                       # number of overall MSHR miss ticks (Tick)
system.l2cache.demandMshrMissRate::cpu.inst            1                       # mshr miss ratio for demand accesses (Ratio)
system.l2cache.demandMshrMissRate::cpu.data     0.861324                       # mshr miss ratio for demand accesses (Ratio)
system.l2cache.demandMshrMissRate::total     0.861373                       # mshr miss ratio for demand accesses (Ratio)
system.l2cache.overallMshrMissRate::cpu.inst            1                       # mshr miss ratio for overall accesses (Ratio)
system.l2cache.overallMshrMissRate::cpu.data     0.861324                       # mshr miss ratio for overall accesses (Ratio)
system.l2cache.overallMshrMissRate::total     0.861373                       # mshr miss ratio for overall accesses (Ratio)
system.l2cache.demandAvgMshrMissLatency::cpu.inst 78269.299820                       # average overall mshr miss latency ((Tick/Count))
system.l2cache.demandAvgMshrMissLatency::cpu.data 80760.638322                       # average overall mshr miss latency ((Tick/Count))
system.l2cache.demandAvgMshrMissLatency::total 80759.611250                       # average overall mshr miss latency ((Tick/Count))
system.l2cache.overallAvgMshrMissLatency::cpu.inst 78269.299820                       # average overall mshr miss latency ((Tick/Count))
system.l2cache.overallAvgMshrMissLatency::cpu.data 80760.638322                       # average overall mshr miss latency ((Tick/Count))
system.l2cache.overallAvgMshrMissLatency::total 80759.611250                       # average overall mshr miss latency ((Tick/Count))
system.l2cache.replacements                   1347003                       # number of replacements (Count)
system.l2cache.CleanEvict.mshrMisses::writebacks           45                       # number of CleanEvict MSHR misses (Count)
system.l2cache.CleanEvict.mshrMisses::total           45                       # number of CleanEvict MSHR misses (Count)
system.l2cache.CleanEvict.mshrMissRate::writebacks          inf                       # mshr miss rate for CleanEvict accesses (Ratio)
system.l2cache.CleanEvict.mshrMissRate::total          inf                       # mshr miss rate for CleanEvict accesses (Ratio)
system.l2cache.ReadExReq.hits::cpu.data         28178                       # number of ReadExReq hits (Count)
system.l2cache.ReadExReq.hits::total            28178                       # number of ReadExReq hits (Count)
system.l2cache.ReadExReq.misses::cpu.data        18252                       # number of ReadExReq misses (Count)
system.l2cache.ReadExReq.misses::total          18252                       # number of ReadExReq misses (Count)
system.l2cache.ReadExReq.missLatency::cpu.data   1826411000                       # number of ReadExReq miss ticks (Tick)
system.l2cache.ReadExReq.missLatency::total   1826411000                       # number of ReadExReq miss ticks (Tick)
system.l2cache.ReadExReq.accesses::cpu.data        46430                       # number of ReadExReq accesses(hits+misses) (Count)
system.l2cache.ReadExReq.accesses::total        46430                       # number of ReadExReq accesses(hits+misses) (Count)
system.l2cache.ReadExReq.missRate::cpu.data     0.393108                       # miss rate for ReadExReq accesses (Ratio)
system.l2cache.ReadExReq.missRate::total     0.393108                       # miss rate for ReadExReq accesses (Ratio)
system.l2cache.ReadExReq.avgMissLatency::cpu.data 100066.348893                       # average ReadExReq miss latency ((Tick/Count))
system.l2cache.ReadExReq.avgMissLatency::total 100066.348893                       # average ReadExReq miss latency ((Tick/Count))
system.l2cache.ReadExReq.mshrMisses::cpu.data        18252                       # number of ReadExReq MSHR misses (Count)
system.l2cache.ReadExReq.mshrMisses::total        18252                       # number of ReadExReq MSHR misses (Count)
system.l2cache.ReadExReq.mshrMissLatency::cpu.data   1461371000                       # number of ReadExReq MSHR miss ticks (Tick)
system.l2cache.ReadExReq.mshrMissLatency::total   1461371000                       # number of ReadExReq MSHR miss ticks (Tick)
system.l2cache.ReadExReq.mshrMissRate::cpu.data     0.393108                       # mshr miss rate for ReadExReq accesses (Ratio)
system.l2cache.ReadExReq.mshrMissRate::total     0.393108                       # mshr miss rate for ReadExReq accesses (Ratio)
system.l2cache.ReadExReq.avgMshrMissLatency::cpu.data 80066.348893                       # average ReadExReq mshr miss latency ((Tick/Count))
system.l2cache.ReadExReq.avgMshrMissLatency::total 80066.348893                       # average ReadExReq mshr miss latency ((Tick/Count))
system.l2cache.ReadSharedReq.hits::cpu.data       189264                       # number of ReadSharedReq hits (Count)
system.l2cache.ReadSharedReq.hits::total       189264                       # number of ReadSharedReq hits (Count)
system.l2cache.ReadSharedReq.misses::cpu.inst          557                       # number of ReadSharedReq misses (Count)
system.l2cache.ReadSharedReq.misses::cpu.data      1332290                       # number of ReadSharedReq misses (Count)
system.l2cache.ReadSharedReq.misses::total      1332847                       # number of ReadSharedReq misses (Count)
system.l2cache.ReadSharedReq.missLatency::cpu.inst     54736000                       # number of ReadSharedReq miss ticks (Tick)
system.l2cache.ReadSharedReq.missLatency::cpu.data 134255063000                       # number of ReadSharedReq miss ticks (Tick)
system.l2cache.ReadSharedReq.missLatency::total 134309799000                       # number of ReadSharedReq miss ticks (Tick)
system.l2cache.ReadSharedReq.accesses::cpu.inst          557                       # number of ReadSharedReq accesses(hits+misses) (Count)
system.l2cache.ReadSharedReq.accesses::cpu.data      1521554                       # number of ReadSharedReq accesses(hits+misses) (Count)
system.l2cache.ReadSharedReq.accesses::total      1522111                       # number of ReadSharedReq accesses(hits+misses) (Count)
system.l2cache.ReadSharedReq.missRate::cpu.inst            1                       # miss rate for ReadSharedReq accesses (Ratio)
system.l2cache.ReadSharedReq.missRate::cpu.data     0.875611                       # miss rate for ReadSharedReq accesses (Ratio)
system.l2cache.ReadSharedReq.missRate::total     0.875657                       # miss rate for ReadSharedReq accesses (Ratio)
system.l2cache.ReadSharedReq.avgMissLatency::cpu.inst 98269.299820                       # average ReadSharedReq miss latency ((Tick/Count))
system.l2cache.ReadSharedReq.avgMissLatency::cpu.data 100770.149892                       # average ReadSharedReq miss latency ((Tick/Count))
system.l2cache.ReadSharedReq.avgMissLatency::total 100769.104781                       # average ReadSharedReq miss latency ((Tick/Count))
system.l2cache.ReadSharedReq.mshrMisses::cpu.inst          557                       # number of ReadSharedReq MSHR misses (Count)
system.l2cache.ReadSharedReq.mshrMisses::cpu.data      1332290                       # number of ReadSharedReq MSHR misses (Count)
system.l2cache.ReadSharedReq.mshrMisses::total      1332847                       # number of ReadSharedReq MSHR misses (Count)
system.l2cache.ReadSharedReq.mshrMissLatency::cpu.inst     43596000                       # number of ReadSharedReq MSHR miss ticks (Tick)
system.l2cache.ReadSharedReq.mshrMissLatency::cpu.data 107609263000                       # number of ReadSharedReq MSHR miss ticks (Tick)
system.l2cache.ReadSharedReq.mshrMissLatency::total 107652859000                       # number of ReadSharedReq MSHR miss ticks (Tick)
system.l2cache.ReadSharedReq.mshrMissRate::cpu.inst            1                       # mshr miss rate for ReadSharedReq accesses (Ratio)
system.l2cache.ReadSharedReq.mshrMissRate::cpu.data     0.875611                       # mshr miss rate for ReadSharedReq accesses (Ratio)
system.l2cache.ReadSharedReq.mshrMissRate::total     0.875657                       # mshr miss rate for ReadSharedReq accesses (Ratio)
system.l2cache.ReadSharedReq.avgMshrMissLatency::cpu.inst 78269.299820                       # average ReadSharedReq mshr miss latency ((Tick/Count))
system.l2cache.ReadSharedReq.avgMshrMissLatency::cpu.data 80770.149892                       # average ReadSharedReq mshr miss latency ((Tick/Count))
system.l2cache.ReadSharedReq.avgMshrMissLatency::total 80769.104781                       # average ReadSharedReq mshr miss latency ((Tick/Count))
system.l2cache.WritebackDirty.hits::writebacks       172427                       # number of WritebackDirty hits (Count)
system.l2cache.WritebackDirty.hits::total       172427                       # number of WritebackDirty hits (Count)
system.l2cache.WritebackDirty.accesses::writebacks       172427                       # number of WritebackDirty accesses(hits+misses) (Count)
system.l2cache.WritebackDirty.accesses::total       172427                       # number of WritebackDirty accesses(hits+misses) (Count)
system.l2cache.power_state.pwrStateResidencyTicks::UNDEFINED 1812485627000                       # Cumulative time (in ticks) in various power states (Tick)
system.l2cache.tags.tagsInUse             4093.293284                       # Average ticks per tags in use ((Tick/Count))
system.l2cache.tags.totalRefs                 3135565                       # Total number of references to valid blocks. (Count)
system.l2cache.tags.sampledRefs               1351099                       # Sample count of references to valid blocks. (Count)
system.l2cache.tags.avgRefs                  2.320751                       # Average number of references to valid blocks. ((Count/Count))
system.l2cache.tags.warmupTick                  86000                       # The tick when the warmup percentage was hit. (Tick)
system.l2cache.tags.occupancies::cpu.inst     0.685453                       # Average occupied blocks per tick, per requestor ((Count/Tick))
system.l2cache.tags.occupancies::cpu.data  4092.607831                       # Average occupied blocks per tick, per requestor ((Count/Tick))
system.l2cache.tags.avgOccs::cpu.inst        0.000167                       # Average percentage of cache occupancy ((Ratio/Tick))
system.l2cache.tags.avgOccs::cpu.data        0.999172                       # Average percentage of cache occupancy ((Ratio/Tick))
system.l2cache.tags.avgOccs::total           0.999339                       # Average percentage of cache occupancy ((Ratio/Tick))
system.l2cache.tags.occupanciesTaskId::1024         4096                       # Occupied blocks per task id (Count)
system.l2cache.tags.ageTaskId_1024::0              73                       # Occupied blocks per task id, per block age (Count)
system.l2cache.tags.ageTaskId_1024::1             106                       # Occupied blocks per task id, per block age (Count)
system.l2cache.tags.ageTaskId_1024::2             666                       # Occupied blocks per task id, per block age (Count)
system.l2cache.tags.ageTaskId_1024::3            3248                       # Occupied blocks per task id, per block age (Count)
system.l2cache.tags.ageTaskId_1024::4               3                       # Occupied blocks per task id, per block age (Count)
system.l2cache.tags.ratioOccsTaskId::1024            1                       # Ratio of occupied blocks and all blocks, per task id (Ratio)
system.l2cache.tags.tagAccesses              26435979                       # Number of tag accesses (Count)
system.l2cache.tags.dataAccesses             26435979                       # Number of data accesses (Count)
system.l2cache.tags.power_state.pwrStateResidencyTicks::UNDEFINED 1812485627000                       # Cumulative time (in ticks) in various power states (Tick)
system.mem_ctrl.avgPriority_writebacks::samples     23740.00                       # Average QoS priority value for accepted requests (Count)
system.mem_ctrl.avgPriority_cpu.inst::samples       557.00                       # Average QoS priority value for accepted requests (Count)
system.mem_ctrl.avgPriority_cpu.data::samples   1350526.00                       # Average QoS priority value for accepted requests (Count)
system.mem_ctrl.priorityMinLatency       0.000000018750                       # per QoS priority minimum request to response latency (Second)
system.mem_ctrl.priorityMaxLatency       0.036756440500                       # per QoS priority maximum request to response latency (Second)
system.mem_ctrl.numReadWriteTurnArounds          1318                       # Number of turnarounds from READ to WRITE (Count)
system.mem_ctrl.numWriteReadTurnArounds          1318                       # Number of turnarounds from WRITE to READ (Count)
system.mem_ctrl.numStayReadState              3191442                       # Number of times bus staying in READ state (Count)
system.mem_ctrl.numStayWriteState               22425                       # Number of times bus staying in WRITE state (Count)
system.mem_ctrl.readReqs                      1351099                       # Number of read requests accepted (Count)
system.mem_ctrl.writeReqs                       23740                       # Number of write requests accepted (Count)
system.mem_ctrl.readBursts                    1351099                       # Number of controller read bursts, including those serviced by the write queue (Count)
system.mem_ctrl.writeBursts                     23740                       # Number of controller write bursts, including those merged in the write queue (Count)
system.mem_ctrl.servicedByWrQ                      16                       # Number of controller read bursts serviced by the write queue (Count)
system.mem_ctrl.mergedWrBursts                      0                       # Number of controller write bursts merged with an existing one (Count)
system.mem_ctrl.neitherReadNorWriteReqs             0                       # Number of requests that are neither read nor write (Count)
system.mem_ctrl.avgRdQLen                        1.00                       # Average read queue length when enqueuing ((Count/Tick))
system.mem_ctrl.avgWrQLen                       24.40                       # Average write queue length when enqueuing ((Count/Tick))
system.mem_ctrl.numRdRetry                          0                       # Number of times read queue was full causing retry (Count)
system.mem_ctrl.numWrRetry                          0                       # Number of times write queue was full causing retry (Count)
system.mem_ctrl.readPktSize::0                      0                       # Read request sizes (log2) (Count)
system.mem_ctrl.readPktSize::1                      0                       # Read request sizes (log2) (Count)
system.mem_ctrl.readPktSize::2                      0                       # Read request sizes (log2) (Count)
system.mem_ctrl.readPktSize::3                      0                       # Read request sizes (log2) (Count)
system.mem_ctrl.readPktSize::4                      0                       # Read request sizes (log2) (Count)
system.mem_ctrl.readPktSize::5                      0                       # Read request sizes (log2) (Count)
system.mem_ctrl.readPktSize::6                1351099                       # Read request sizes (log2) (Count)
system.mem_ctrl.writePktSize::0                     0                       # Write request sizes (log2) (Count)
system.mem_ctrl.writePktSize::1                     0                       # Write request sizes (log2) (Count)
system.mem_ctrl.writePktSize::2                     0                       # Write request sizes (log2) (Count)
system.mem_ctrl.writePktSize::3                     0                       # Write request sizes (log2) (Count)
system.mem_ctrl.writePktSize::4                     0                       # Write request sizes (log2) (Count)
system.mem_ctrl.writePktSize::5                     0                       # Write request sizes (log2) (Count)
system.mem_ctrl.writePktSize::6                 23740                       # Write request sizes (log2) (Count)
system.mem_ctrl.rdQLenPdf::0                  1351083                       # What read queue length does an incoming req see (Count)
system.mem_ctrl.rdQLenPdf::1                        0                       # What read queue length does an incoming req see (Count)
system.mem_ctrl.rdQLenPdf::2                        0                       # What read queue length does an incoming req see (Count)
system.mem_ctrl.rdQLenPdf::3                        0                       # What read queue length does an incoming req see (Count)
system.mem_ctrl.rdQLenPdf::4                        0                       # What read queue length does an incoming req see (Count)
system.mem_ctrl.rdQLenPdf::5                        0                       # What read queue length does an incoming req see (Count)
system.mem_ctrl.rdQLenPdf::6                        0                       # What read queue length does an incoming req see (Count)
system.mem_ctrl.rdQLenPdf::7                        0                       # What read queue length does an incoming req see (Count)
system.mem_ctrl.rdQLenPdf::8                        0                       # What read queue length does an incoming req see (Count)
system.mem_ctrl.rdQLenPdf::9                        0                       # What read queue length does an incoming req see (Count)
system.mem_ctrl.rdQLenPdf::10                       0                       # What read queue length does an incoming req see (Count)
system.mem_ctrl.rdQLenPdf::11                       0                       # What read queue length does an incoming req see (Count)
system.mem_ctrl.rdQLenPdf::12                       0                       # What read queue length does an incoming req see (Count)
system.mem_ctrl.rdQLenPdf::13                       0                       # What read queue length does an incoming req see (Count)
system.mem_ctrl.rdQLenPdf::14                       0                       # What read queue length does an incoming req see (Count)
system.mem_ctrl.rdQLenPdf::15                       0                       # What read queue length does an incoming req see (Count)
system.mem_ctrl.rdQLenPdf::16                       0                       # What read queue length does an incoming req see (Count)
system.mem_ctrl.rdQLenPdf::17                       0                       # What read queue length does an incoming req see (Count)
system.mem_ctrl.rdQLenPdf::18                       0                       # What read queue length does an incoming req see (Count)
system.mem_ctrl.rdQLenPdf::19                       0                       # What read queue length does an incoming req see (Count)
system.mem_ctrl.rdQLenPdf::20                       0                       # What read queue length does an incoming req see (Count)
system.mem_ctrl.rdQLenPdf::21                       0                       # What read queue length does an incoming req see (Count)
system.mem_ctrl.rdQLenPdf::22                       0                       # What read queue length does an incoming req see (Count)
system.mem_ctrl.rdQLenPdf::23                       0                       # What read queue length does an incoming req see (Count)
system.mem_ctrl.rdQLenPdf::24                       0                       # What read queue length does an incoming req see (Count)
system.mem_ctrl.rdQLenPdf::25                       0                       # What read queue length does an incoming req see (Count)
system.mem_ctrl.rdQLenPdf::26                       0                       # What read queue length does an incoming req see (Count)
system.mem_ctrl.rdQLenPdf::27                       0                       # What read queue length does an incoming req see (Count)
[...]
system.mem_ctrl.dram.bytesWritten::total      1519360                       # Number of bytes written to this memory (Byte)
system.mem_ctrl.dram.numReads::cpu.inst           557                       # Number of read requests responded to by this memory (Count)
system.mem_ctrl.dram.numReads::cpu.data       1350542                       # Number of read requests responded to by this memory (Count)
system.mem_ctrl.dram.numReads::total          1351099                       # Number of read requests responded to by this memory (Count)
system.mem_ctrl.dram.numWrites::writebacks        23740                       # Number of write requests responded to by this memory (Count)
system.mem_ctrl.dram.numWrites::total           23740                       # Number of write requests responded to by this memory (Count)
system.mem_ctrl.dram.bwRead::cpu.inst           19668                       # Total read bandwidth from this memory ((Byte/Second))
system.mem_ctrl.dram.bwRead::cpu.data        47688482                       # Total read bandwidth from this memory ((Byte/Second))
system.mem_ctrl.dram.bwRead::total           47708150                       # Total read bandwidth from this memory ((Byte/Second))
system.mem_ctrl.dram.bwInstRead::cpu.inst        19668                       # Instruction read bandwidth from this memory ((Byte/Second))
system.mem_ctrl.dram.bwInstRead::total          19668                       # Instruction read bandwidth from this memory ((Byte/Second))
system.mem_ctrl.dram.bwWrite::writebacks       838274                       # Write bandwidth from this memory ((Byte/Second))
system.mem_ctrl.dram.bwWrite::total            838274                       # Write bandwidth from this memory ((Byte/Second))
system.mem_ctrl.dram.bwTotal::writebacks       838274                       # Total bandwidth to/from this memory ((Byte/Second))
system.mem_ctrl.dram.bwTotal::cpu.inst          19668                       # Total bandwidth to/from this memory ((Byte/Second))
system.mem_ctrl.dram.bwTotal::cpu.data       47688482                       # Total bandwidth to/from this memory ((Byte/Second))
system.mem_ctrl.dram.bwTotal::total          48546424                       # Total bandwidth to/from this memory ((Byte/Second))
system.mem_ctrl.dram.readBursts               1351083                       # Number of DRAM read bursts (Count)
system.mem_ctrl.dram.writeBursts                23721                       # Number of DRAM write bursts (Count)
system.mem_ctrl.dram.perBankRdBursts::0         78551                       # Per bank write bursts (Count)
system.mem_ctrl.dram.perBankRdBursts::1         78967                       # Per bank write bursts (Count)
system.mem_ctrl.dram.perBankRdBursts::2         78925                       # Per bank write bursts (Count)
system.mem_ctrl.dram.perBankRdBursts::3         78914                       # Per bank write bursts (Count)
system.mem_ctrl.dram.perBankRdBursts::4         78853                       # Per bank write bursts (Count)
system.mem_ctrl.dram.perBankRdBursts::5         78863                       # Per bank write bursts (Count)
system.mem_ctrl.dram.perBankRdBursts::6         78771                       # Per bank write bursts (Count)
system.mem_ctrl.dram.perBankRdBursts::7         78723                       # Per bank write bursts (Count)
system.mem_ctrl.dram.perBankRdBursts::8         78790                       # Per bank write bursts (Count)
system.mem_ctrl.dram.perBankRdBursts::9         78804                       # Per bank write bursts (Count)
system.mem_ctrl.dram.perBankRdBursts::10        78690                       # Per bank write bursts (Count)
system.mem_ctrl.dram.perBankRdBursts::11       104197                       # Per bank write bursts (Count)
system.mem_ctrl.dram.perBankRdBursts::12       104246                       # Per bank write bursts (Count)
system.mem_ctrl.dram.perBankRdBursts::13       104232                       # Per bank write bursts (Count)
system.mem_ctrl.dram.perBankRdBursts::14        92994                       # Per bank write bursts (Count)
system.mem_ctrl.dram.perBankRdBursts::15        78563                       # Per bank write bursts (Count)
system.mem_ctrl.dram.perBankWrBursts::0          1284                       # Per bank write bursts (Count)
system.mem_ctrl.dram.perBankWrBursts::1          1536                       # Per bank write bursts (Count)
system.mem_ctrl.dram.perBankWrBursts::2          1536                       # Per bank write bursts (Count)
system.mem_ctrl.dram.perBankWrBursts::3          1536                       # Per bank write bursts (Count)
system.mem_ctrl.dram.perBankWrBursts::4          1536                       # Per bank write bursts (Count)
system.mem_ctrl.dram.perBankWrBursts::5          1536                       # Per bank write bursts (Count)
system.mem_ctrl.dram.perBankWrBursts::6          1536                       # Per bank write bursts (Count)
system.mem_ctrl.dram.perBankWrBursts::7          1536                       # Per bank write bursts (Count)
system.mem_ctrl.dram.perBankWrBursts::8          1550                       # Per bank write bursts (Count)
system.mem_ctrl.dram.perBankWrBursts::9          1595                       # Per bank write bursts (Count)
system.mem_ctrl.dram.perBankWrBursts::10         1523                       # Per bank write bursts (Count)
system.mem_ctrl.dram.perBankWrBursts::11         1481                       # Per bank write bursts (Count)
system.mem_ctrl.dram.perBankWrBursts::12         1428                       # Per bank write bursts (Count)
system.mem_ctrl.dram.perBankWrBursts::13         1423                       # Per bank write bursts (Count)
system.mem_ctrl.dram.perBankWrBursts::14         1373                       # Per bank write bursts (Count)
system.mem_ctrl.dram.perBankWrBursts::15         1312                       # Per bank write bursts (Count)
system.mem_ctrl.dram.totQLat              14482241750                       # Total ticks spent queuing (Tick)
system.mem_ctrl.dram.totBusLat             6755415000                       # Total ticks spent in databus transfers (Tick)
system.mem_ctrl.dram.totMemAccLat         39815048000                       # Total ticks spent from burst creation until serviced by the DRAM (Tick)
system.mem_ctrl.dram.avgQLat                 10718.99                       # Average queueing delay per DRAM burst ((Tick/Count))
system.mem_ctrl.dram.avgBusLat                5000.00                       # Average bus latency per DRAM burst ((Tick/Count))
system.mem_ctrl.dram.avgMemAccLat            29468.99                       # Average memory access latency per DRAM burst ((Tick/Count))
system.mem_ctrl.dram.readRowHits              1101994                       # Number of row buffer hits during reads (Count)
system.mem_ctrl.dram.writeRowHits               21006                       # Number of row buffer hits during writes (Count)
system.mem_ctrl.dram.readRowHitRate             81.56                       # Row buffer hit rate for reads (Ratio)
system.mem_ctrl.dram.writeRowHitRate            88.55                       # Row buffer hit rate for writes (Ratio)
system.mem_ctrl.dram.bytesPerActivate::samples       251802                       # Bytes accessed per row activation (Byte)
system.mem_ctrl.dram.bytesPerActivate::mean   349.427312                       # Bytes accessed per row activation (Byte)
system.mem_ctrl.dram.bytesPerActivate::gmean   330.182298                       # Bytes accessed per row activation (Byte)
system.mem_ctrl.dram.bytesPerActivate::stdev    93.279579                       # Bytes accessed per row activation (Byte)
system.mem_ctrl.dram.bytesPerActivate::0-127        10307      4.09%      4.09% # Bytes accessed per row activation (Byte)
system.mem_ctrl.dram.bytesPerActivate::128-255         9356      3.72%      7.81% # Bytes accessed per row activation (Byte)
system.mem_ctrl.dram.bytesPerActivate::256-383        66168     26.28%     34.09% # Bytes accessed per row activation (Byte)
system.mem_ctrl.dram.bytesPerActivate::384-511       162707     64.62%     98.70% # Bytes accessed per row activation (Byte)
system.mem_ctrl.dram.bytesPerActivate::512-639          827      0.33%     99.03% # Bytes accessed per row activation (Byte)
system.mem_ctrl.dram.bytesPerActivate::640-767         1158      0.46%     99.49% # Bytes accessed per row activation (Byte)
system.mem_ctrl.dram.bytesPerActivate::768-895           75      0.03%     99.52% # Bytes accessed per row activation (Byte)
system.mem_ctrl.dram.bytesPerActivate::896-1023           89      0.04%     99.56% # Bytes accessed per row activation (Byte)
system.mem_ctrl.dram.bytesPerActivate::1024-1151         1115      0.44%    100.00% # Bytes accessed per row activation (Byte)
system.mem_ctrl.dram.bytesPerActivate::total       251802                       # Bytes accessed per row activation (Byte)
system.mem_ctrl.dram.bytesRead               86469312                       # Total bytes read (Byte)
system.mem_ctrl.dram.bytesWritten             1518144                       # Total bytes written (Byte)
system.mem_ctrl.dram.avgRdBW                47.707585                       # Average DRAM read bandwidth in MiBytes/s ((Byte/Second))
system.mem_ctrl.dram.avgWrBW                 0.837603                       # Average DRAM write bandwidth in MiBytes/s ((Byte/Second))
system.mem_ctrl.dram.peakBW                  12800.00                       # Theoretical peak bandwidth in MiByte/s ((Byte/Second))
system.mem_ctrl.dram.busUtil                     0.38                       # Data bus utilization in percentage (Ratio)
system.mem_ctrl.dram.busUtilRead                 0.37                       # Data bus utilization in percentage for reads (Ratio)
system.mem_ctrl.dram.busUtilWrite                0.01                       # Data bus utilization in percentage for writes (Ratio)
system.mem_ctrl.dram.pageHitRate                81.68                       # Row buffer hit rate, read and write combined (Ratio)
system.mem_ctrl.dram.power_state.pwrStateResidencyTicks::UNDEFINED 1812485627000                       # Cumulative time (in ticks) in various power states (Tick)
system.mem_ctrl.dram.rank0.actEnergy        840784980                       # Energy for activate commands per rank (pJ) (Joule)
system.mem_ctrl.dram.rank0.preEnergy        446887815                       # Energy for precharge commands per rank (pJ) (Joule)
system.mem_ctrl.dram.rank0.readEnergy      4502248380                       # Energy for read commands per rank (pJ) (Joule)
system.mem_ctrl.dram.rank0.writeEnergy       62827920                       # Energy for write commands per rank (pJ) (Joule)
system.mem_ctrl.dram.rank0.refreshEnergy 143075899200.000031                       # Energy for refresh commands per rank (pJ) (Joule)
system.mem_ctrl.dram.rank0.actBackEnergy 380421336210                       # Energy for active background per rank (pJ) (Joule)
system.mem_ctrl.dram.rank0.preBackEnergy 375639671520                       # Energy for precharge background per rank (pJ) (Joule)
system.mem_ctrl.dram.rank0.actPowerDownEnergy            0                       # Energy for active power-down per rank (pJ) (Joule)
system.mem_ctrl.dram.rank0.prePowerDownEnergy            0                       # Energy for precharge power-down per rank (pJ) (Joule)
system.mem_ctrl.dram.rank0.selfRefreshEnergy            0                       # Energy for self refresh per rank (pJ) (Joule)
system.mem_ctrl.dram.rank0.totalEnergy   904989656025                       # Total energy per rank (pJ) (Joule)
system.mem_ctrl.dram.rank0.averagePower    499.308597                       # Core power per rank (mW) (Watt)
system.mem_ctrl.dram.rank0.totalIdleTime            0                       # Total Idle time Per DRAM Rank (Tick)
system.mem_ctrl.dram.rank0.pwrStateTime::IDLE 973442489000                       # Time in different power states (Tick)
system.mem_ctrl.dram.rank0.pwrStateTime::REF  60522800000                       # Time in different power states (Tick)
system.mem_ctrl.dram.rank0.pwrStateTime::SREF            0                       # Time in different power states (Tick)
system.mem_ctrl.dram.rank0.pwrStateTime::PRE_PDN            0                       # Time in different power states (Tick)
system.mem_ctrl.dram.rank0.pwrStateTime::ACT 778520338000                       # Time in different power states (Tick)
system.mem_ctrl.dram.rank0.pwrStateTime::ACT_PDN            0                       # Time in different power states (Tick)
system.mem_ctrl.dram.rank1.actEnergy        957095580                       # Energy for activate commands per rank (pJ) (Joule)
system.mem_ctrl.dram.rank1.preEnergy        508700775                       # Energy for precharge commands per rank (pJ) (Joule)
system.mem_ctrl.dram.rank1.readEnergy      5144484240                       # Energy for read commands per rank (pJ) (Joule)
system.mem_ctrl.dram.rank1.writeEnergy       60995700                       # Energy for write commands per rank (pJ) (Joule)
system.mem_ctrl.dram.rank1.refreshEnergy 143075899200.000031                       # Energy for refresh commands per rank (pJ) (Joule)
system.mem_ctrl.dram.rank1.actBackEnergy 431066934030                       # Energy for active background per rank (pJ) (Joule)
system.mem_ctrl.dram.rank1.preBackEnergy 332990747040                       # Energy for precharge background per rank (pJ) (Joule)
system.mem_ctrl.dram.rank1.actPowerDownEnergy            0                       # Energy for active power-down per rank (pJ) (Joule)
system.mem_ctrl.dram.rank1.prePowerDownEnergy            0                       # Energy for precharge power-down per rank (pJ) (Joule)
system.mem_ctrl.dram.rank1.selfRefreshEnergy            0                       # Energy for self refresh per rank (pJ) (Joule)
system.mem_ctrl.dram.rank1.totalEnergy   913804856565                       # Total energy per rank (pJ) (Joule)
system.mem_ctrl.dram.rank1.averagePower    504.172195                       # Core power per rank (mW) (Watt)
system.mem_ctrl.dram.rank1.totalIdleTime            0                       # Total Idle time Per DRAM Rank (Tick)
system.mem_ctrl.dram.rank1.pwrStateTime::IDLE 862156101750                       # Time in different power states (Tick)
system.mem_ctrl.dram.rank1.pwrStateTime::REF  60522800000                       # Time in different power states (Tick)
system.mem_ctrl.dram.rank1.pwrStateTime::SREF            0                       # Time in different power states (Tick)
system.mem_ctrl.dram.rank1.pwrStateTime::PRE_PDN            0                       # Time in different power states (Tick)
system.mem_ctrl.dram.rank1.pwrStateTime::ACT 889806725250                       # Time in different power states (Tick)
system.mem_ctrl.dram.rank1.pwrStateTime::ACT_PDN            0                       # Time in different power states (Tick)
system.mem_ctrl.power_state.pwrStateResidencyTicks::UNDEFINED 1812485627000                       # Cumulative time (in ticks) in various power states (Tick)
system.membus.transDist::ReadResp             1332847                       # Transaction distribution (Count)
system.membus.transDist::WritebackDirty         23740                       # Transaction distribution (Count)
system.membus.transDist::CleanEvict           1322885                       # Transaction distribution (Count)
system.membus.transDist::ReadExReq              18252                       # Transaction distribution (Count)
system.membus.transDist::ReadExResp             18252                       # Transaction distribution (Count)
system.membus.transDist::ReadSharedReq        1332847                       # Transaction distribution (Count)
system.membus.pktCount_system.l2cache.mem_side_port::system.mem_ctrl.port      4048823                       # Packet count per connected requestor and responder (Count)
system.membus.pktCount_system.l2cache.mem_side_port::total      4048823                       # Packet count per connected requestor and responder (Count)
system.membus.pktCount::total                 4048823                       # Packet count per connected requestor and responder (Count)
system.membus.pktSize_system.l2cache.mem_side_port::system.mem_ctrl.port     87989696                       # Cumulative packet size per connected requestor and responder (Byte)
system.membus.pktSize_system.l2cache.mem_side_port::total     87989696                       # Cumulative packet size per connected requestor and responder (Byte)
system.membus.pktSize::total                 87989696                       # Cumulative packet size per connected requestor and responder (Byte)
system.membus.snoops                                0                       # Total snoops (Count)
system.membus.snoopTraffic                          0                       # Total snoop traffic (Byte)
system.membus.snoopFanout::samples            1351099                       # Request fanout histogram (Count)
system.membus.snoopFanout::mean                     0                       # Request fanout histogram (Count)
system.membus.snoopFanout::stdev                    0                       # Request fanout histogram (Count)
system.membus.snoopFanout::underflows               0      0.00%      0.00% # Request fanout histogram (Count)
system.membus.snoopFanout::0                  1351099    100.00%    100.00% # Request fanout histogram (Count)
system.membus.snoopFanout::1                        0      0.00%    100.00% # Request fanout histogram (Count)
system.membus.snoopFanout::overflows                0      0.00%    100.00% # Request fanout histogram (Count)
system.membus.snoopFanout::min_value                0                       # Request fanout histogram (Count)
system.membus.snoopFanout::max_value                0                       # Request fanout histogram (Count)
system.membus.snoopFanout::total              1351099                       # Request fanout histogram (Count)
system.membus.power_state.pwrStateResidencyTicks::UNDEFINED 1812485627000                       # Cumulative time (in ticks) in various power states (Tick)
system.membus.reqLayer2.occupancy          2792684000                       # Layer occupancy (ticks) (Tick)
system.membus.reqLayer2.utilization               0.0                       # Layer utilization (Ratio)
system.membus.respLayer0.occupancy         7148788000                       # Layer occupancy (ticks) (Tick)
system.membus.respLayer0.utilization              0.0                       # Layer utilization (Ratio)
system.membus.snoop_filter.totRequests        2697724                       # Total number of requests made to the snoop filter. (Count)
system.membus.snoop_filter.hitSingleRequests      1346625                       # Number of requests hitting in the snoop filter with a single holder of the requested data. (Count)
system.membus.snoop_filter.hitMultiRequests            0                       # Number of requests hitting in the snoop filter with multiple (>1) holders of the requested data. (Count)
system.membus.snoop_filter.totSnoops                0                       # Total number of snoops made to the snoop filter. (Count)
system.membus.snoop_filter.hitSingleSnoops            0                       # Number of snoops hitting in the snoop filter with a single holder of the requested data. (Count)
system.membus.snoop_filter.hitMultiSnoops            0                       # Number of snoops hitting in the snoop filter with multiple (>1) holders of the requested data. (Count)
system.workload.inst.arm                            0                       # number of arm instructions executed (Count)
system.workload.inst.quiesce                        0                       # number of quiesce instructions executed (Count)

---------- End Simulation Statistics   ----------
