
---------- Begin Simulation Statistics ----------
simSeconds                                  50.312649                       # Number of seconds simulated (Second)
simTicks                                 50312648575000                       # Number of ticks simulated (Tick)
finalTick                                50312648575000                       # Number of ticks from beginning of simulation (restored from checkpoints and never reset) (Tick)
simFreq                                  1000000000000                       # The number of ticks per simulated second ((Tick/Second))
hostSeconds                                   8499.20                       # Real time elapsed on the host (Second)
hostTickRate                               5919692873                       # The number of ticks simulated per host second (ticks/s) ((Tick/Second))
hostMemory                                     681708                       # Number of bytes of host memory used (Byte)
simInsts                                  10617797879                       # Number of instructions simulated (Count)
simOps                                    19917690111                       # Number of ops (including micro ops) simulated (Count)
hostInstRate                                  1249270                       # Simulator instruction rate (inst/s) ((Count/Second))
hostOpRate                                    2343478                       # Simulator op (including micro ops) rate (op/s) ((Count/Second))
system.clk_domain.clock                          1000                       # Clock period in ticks (Tick)
system.clk_domain.voltage_domain.voltage            1                       # Voltage in Volts (Volt)
system.cpu.numCycles                      50312648575                       # Number of cpu cycles simulated (Cycle)
system.cpu.cpi                               4.738520                       # CPI: cycles per instruction (core level) ((Cycle/Count))
system.cpu.ipc                               0.211036                       # IPC: instructions per cycle (core level) ((Count/Cycle))
system.cpu.numWorkItemsStarted                      0                       # Number of work items this cpu started (Count)
system.cpu.numWorkItemsCompleted                    0                       # Number of work items this cpu completed (Count)
system.cpu.commitStats0.numInsts          10617797903                       # Number of instructions committed (thread level) (Count)
system.cpu.commitStats0.numOps            19917697209                       # Number of ops (including micro ops) committed (thread level) (Count)
system.cpu.commitStats0.numInstsNotNOP              0                       # Number of instructions committed excluding NOPs or prefetches (Count)
system.cpu.commitStats0.numOpsNotNOP                0                       # Number of Ops (including micro ops) Simulated (Count)
system.cpu.commitStats0.cpi                  4.738520                       # CPI: cycles per instruction (thread level) ((Cycle/Count))
system.cpu.commitStats0.ipc                  0.211036                       # IPC: instructions per cycle (thread level) ((Count/Cycle))
system.cpu.commitStats0.numMemRefs                  0                       # Number of memory references committed (Count)
system.cpu.commitStats0.numFpInsts        10656668832                       # Number of float instructions (Count)
system.cpu.commitStats0.numIntInsts       14545653709                       # Number of integer instructions (Count)
system.cpu.commitStats0.numLoadInsts       3961119942                       # Number of load instructions (Count)
system.cpu.commitStats0.numStoreInsts      1324738067                       # Number of store instructions (Count)
system.cpu.commitStats0.numVecInsts                 0                       # Number of vector instructions (Count)
system.cpu.commitStats0.committedInstType::No_OpClass      1205487      0.01%      0.01% # Class of committed instruction. (Count)
system.cpu.commitStats0.committedInstType::IntAlu   9281223627     46.60%     46.60% # Class of committed instruction. (Count)
system.cpu.commitStats0.committedInstType::IntMult           44      0.00%     46.60% # Class of committed instruction. (Count)
system.cpu.commitStats0.committedInstType::IntDiv          114      0.00%     46.60% # Class of committed instruction. (Count)
system.cpu.commitStats0.committedInstType::FloatAdd   1320003351      6.63%     53.23% # Class of committed instruction. (Count)
system.cpu.commitStats0.committedInstType::FloatCmp            0      0.00%     53.23% # Class of committed instruction. (Count)
system.cpu.commitStats0.committedInstType::FloatCvt            0      0.00%     53.23% # Class of committed instruction. (Count)
system.cpu.commitStats0.committedInstType::FloatMult            0      0.00%     53.23% # Class of committed instruction. (Count)
system.cpu.commitStats0.committedInstType::FloatMultAcc            0      0.00%     53.23% # Class of committed instruction. (Count)
system.cpu.commitStats0.committedInstType::FloatDiv            0      0.00%     53.23% # Class of committed instruction. (Count)
system.cpu.commitStats0.committedInstType::FloatMisc            0      0.00%     53.23% # Class of committed instruction. (Count)
system.cpu.commitStats0.committedInstType::FloatSqrt            0      0.00%     53.23% # Class of committed instruction. (Count)
system.cpu.commitStats0.committedInstType::SimdAdd     16950010      0.09%     53.32% # Class of committed instruction. (Count)
system.cpu.commitStats0.committedInstType::SimdAddAcc            0      0.00%     53.32% # Class of committed instruction. (Count)
system.cpu.commitStats0.committedInstType::SimdAlu          243      0.00%     53.32% # Class of committed instruction. (Count)
system.cpu.commitStats0.committedInstType::SimdCmp            4      0.00%     53.32% # Class of committed instruction. (Count)
system.cpu.commitStats0.committedInstType::SimdCvt      3620082      0.02%     53.33% # Class of committed instruction. (Count)
system.cpu.commitStats0.committedInstType::SimdMisc     10869835      0.05%     53.39% # Class of committed instruction. (Count)
system.cpu.commitStats0.committedInstType::SimdMult     14480000      0.07%     53.46% # Class of committed instruction. (Count)
system.cpu.commitStats0.committedInstType::SimdMultAcc            0      0.00%     53.46% # Class of committed instruction. (Count)
system.cpu.commitStats0.committedInstType::SimdMatMultAcc            0      0.00%     53.46% # Class of committed instruction. (Count)
system.cpu.commitStats0.committedInstType::SimdShift     15146403      0.08%     53.54% # Class of committed instruction. (Count)
system.cpu.commitStats0.committedInstType::SimdShiftAcc            0      0.00%     53.54% # Class of committed instruction. (Count)
system.cpu.commitStats0.committedInstType::SimdDiv            0      0.00%     53.54% # Class of committed instruction. (Count)
system.cpu.commitStats0.committedInstType::SimdSqrt            0      0.00%     53.54% # Class of committed instruction. (Count)
system.cpu.commitStats0.committedInstType::SimdFloatAdd   1320000000      6.63%     60.17% # Class of committed instruction. (Count)
system.cpu.commitStats0.committedInstType::SimdFloatAlu            0      0.00%     60.17% # Class of committed instruction. (Count)
system.cpu.commitStats0.committedInstType::SimdFloatCmp            0      0.00%     60.17% # Class of committed instruction. (Count)
system.cpu.commitStats0.committedInstType::SimdFloatCvt      3620000      0.02%     60.18% # Class of committed instruction. (Count)
system.cpu.commitStats0.committedInstType::SimdFloatDiv      3620000      0.02%     60.20% # Class of committed instruction. (Count)
system.cpu.commitStats0.committedInstType::SimdFloatMisc            0      0.00%     60.20% # Class of committed instruction. (Count)
system.cpu.commitStats0.committedInstType::SimdFloatMult   2641100000     13.26%     73.46% # Class of committed instruction. (Count)
system.cpu.commitStats0.committedInstType::SimdFloatMultAcc            0      0.00%     73.46% # Class of committed instruction. (Count)
system.cpu.commitStats0.committedInstType::SimdFloatMatMultAcc            0      0.00%     73.46% # Class of committed instruction. (Count)
system.cpu.commitStats0.committedInstType::SimdFloatSqrt            0      0.00%     73.46% # Class of committed instruction. (Count)
system.cpu.commitStats0.committedInstType::SimdReduceAdd            0      0.00%     73.46% # Class of committed instruction. (Count)
system.cpu.commitStats0.committedInstType::SimdReduceAlu            0      0.00%     73.46% # Class of committed instruction. (Count)
system.cpu.commitStats0.committedInstType::SimdReduceCmp            0      0.00%     73.46% # Class of committed instruction. (Count)
system.cpu.commitStats0.committedInstType::SimdFloatReduceAdd            0      0.00%     73.46% # Class of committed instruction. (Count)
system.cpu.commitStats0.committedInstType::SimdFloatReduceCmp            0      0.00%     73.46% # Class of committed instruction. (Count)
system.cpu.commitStats0.committedInstType::SimdAes            0      0.00%     73.46% # Class of committed instruction. (Count)
system.cpu.commitStats0.committedInstType::SimdAesMix            0      0.00%     73.46% # Class of committed instruction. (Count)
system.cpu.commitStats0.committedInstType::SimdSha1Hash            0      0.00%     73.46% # Class of committed instruction. (Count)
system.cpu.commitStats0.committedInstType::SimdSha1Hash2            0      0.00%     73.46% # Class of committed instruction. (Count)
system.cpu.commitStats0.committedInstType::SimdSha256Hash            0      0.00%     73.46% # Class of committed instruction. (Count)
system.cpu.commitStats0.committedInstType::SimdSha256Hash2            0      0.00%     73.46% # Class of committed instruction. (Count)
system.cpu.commitStats0.committedInstType::SimdShaSigma2            0      0.00%     73.46% # Class of committed instruction. (Count)
system.cpu.commitStats0.committedInstType::SimdShaSigma3            0      0.00%     73.46% # Class of committed instruction. (Count)
system.cpu.commitStats0.committedInstType::SimdPredAlu            0      0.00%     73.46% # Class of committed instruction. (Count)
system.cpu.commitStats0.committedInstType::Matrix            0      0.00%     73.46% # Class of committed instruction. (Count)
system.cpu.commitStats0.committedInstType::MatrixMov            0      0.00%     73.46% # Class of committed instruction. (Count)
system.cpu.commitStats0.committedInstType::MatrixOP            0      0.00%     73.46% # Class of committed instruction. (Count)
system.cpu.commitStats0.committedInstType::MemRead        19798      0.00%     73.46% # Class of committed instruction. (Count)
system.cpu.commitStats0.committedInstType::MemWrite        10480      0.00%     73.46% # Class of committed instruction. (Count)
system.cpu.commitStats0.committedInstType::FloatMemRead   3961100144     19.89%     93.35% # Class of committed instruction. (Count)
system.cpu.commitStats0.committedInstType::FloatMemWrite   1324727587      6.65%    100.00% # Class of committed instruction. (Count)
system.cpu.commitStats0.committedInstType::IprAccess            0      0.00%    100.00% # Class of committed instruction. (Count)
system.cpu.commitStats0.committedInstType::InstPrefetch            0      0.00%    100.00% # Class of committed instruction. (Count)
system.cpu.commitStats0.committedInstType::VectorUnitStrideLoad            0      0.00%    100.00% # Class of committed instruction. (Count)
system.cpu.commitStats0.committedInstType::VectorUnitStrideStore            0      0.00%    100.00% # Class of committed instruction. (Count)
system.cpu.commitStats0.committedInstType::VectorUnitStrideMaskLoad            0      0.00%    100.00% # Class of committed instruction. (Count)
system.cpu.commitStats0.committedInstType::VectorUnitStrideMaskStore            0      0.00%    100.00% # Class of committed instruction. (Count)
system.cpu.commitStats0.committedInstType::VectorStridedLoad            0      0.00%    100.00% # Class of committed instruction. (Count)
system.cpu.commitStats0.committedInstType::VectorStridedStore            0      0.00%    100.00% # Class of committed instruction. (Count)
system.cpu.commitStats0.committedInstType::VectorIndexedLoad            0      0.00%    100.00% # Class of committed instruction. (Count)
system.cpu.commitStats0.committedInstType::VectorIndexedStore            0      0.00%    100.00% # Class of committed instruction. (Count)
system.cpu.commitStats0.committedInstType::VectorUnitStrideFaultOnlyFirstLoad            0      0.00%    100.00% # Class of committed instruction. (Count)
system.cpu.commitStats0.committedInstType::VectorWholeRegisterLoad            0      0.00%    100.00% # Class of committed instruction. (Count)
system.cpu.commitStats0.committedInstType::VectorWholeRegisterStore            0      0.00%    100.00% # Class of committed instruction. (Count)
system.cpu.commitStats0.committedInstType::VectorIntegerArith            0      0.00%    100.00% # Class of committed instruction. (Count)
system.cpu.commitStats0.committedInstType::VectorFloatArith            0      0.00%    100.00% # Class of committed instruction. (Count)
system.cpu.commitStats0.committedInstType::VectorFloatConvert            0      0.00%    100.00% # Class of committed instruction. (Count)
system.cpu.commitStats0.committedInstType::VectorIntegerReduce            0      0.00%    100.00% # Class of committed instruction. (Count)
system.cpu.commitStats0.committedInstType::VectorFloatReduce            0      0.00%    100.00% # Class of committed instruction. (Count)
system.cpu.commitStats0.committedInstType::VectorMisc            0      0.00%    100.00% # Class of committed instruction. (Count)
system.cpu.commitStats0.committedInstType::VectorIntegerExtension            0      0.00%    100.00% # Class of committed instruction. (Count)
system.cpu.commitStats0.committedInstType::VectorConfig            0      0.00%    100.00% # Class of committed instruction. (Count)
system.cpu.commitStats0.committedInstType::total  19917697209                       # Class of committed instruction. (Count)
system.cpu.commitStats0.committedControl::IsControl   1322693424                       # Class of control type instructions committed (Count)
system.cpu.commitStats0.committedControl::IsDirectControl   1322688760                       # Class of control type instructions committed (Count)
system.cpu.commitStats0.committedControl::IsIndirectControl         4664                       # Class of control type instructions committed (Count)
system.cpu.commitStats0.committedControl::IsCondControl   1322682936                       # Class of control type instructions committed (Count)
system.cpu.commitStats0.committedControl::IsUncondControl        10488                       # Class of control type instructions committed (Count)
system.cpu.commitStats0.committedControl::IsCall         2435                       # Class of control type instructions committed (Count)
system.cpu.commitStats0.committedControl::IsReturn         2430                       # Class of control type instructions committed (Count)
system.cpu.dcache.demandHits::cpu.data     5084246798                       # number of demand (read+write) hits (Count)
system.cpu.dcache.demandHits::total        5084246798                       # number of demand (read+write) hits (Count)
system.cpu.dcache.overallHits::cpu.data    5084246798                       # number of overall hits (Count)
system.cpu.dcache.overallHits::total       5084246798                       # number of overall hits (Count)
system.cpu.dcache.demandMisses::cpu.data    201604051                       # number of demand (read+write) misses (Count)
system.cpu.dcache.demandMisses::total       201604051                       # number of demand (read+write) misses (Count)
system.cpu.dcache.overallMisses::cpu.data    201604051                       # number of overall misses (Count)
system.cpu.dcache.overallMisses::total      201604051                       # number of overall misses (Count)
system.cpu.dcache.demandMissLatency::cpu.data 10939464806000                       # number of demand (read+write) miss ticks (Tick)
system.cpu.dcache.demandMissLatency::total 10939464806000                       # number of demand (read+write) miss ticks (Tick)
system.cpu.dcache.overallMissLatency::cpu.data 10939464806000                       # number of overall miss ticks (Tick)
system.cpu.dcache.overallMissLatency::total 10939464806000                       # number of overall miss ticks (Tick)
system.cpu.dcache.demandAccesses::cpu.data   5285850849                       # number of demand (read+write) accesses (Count)
system.cpu.dcache.demandAccesses::total    5285850849                       # number of demand (read+write) accesses (Count)
system.cpu.dcache.overallAccesses::cpu.data   5285850849                       # number of overall (read+write) accesses (Count)
system.cpu.dcache.overallAccesses::total   5285850849                       # number of overall (read+write) accesses (Count)
system.cpu.dcache.demandMissRate::cpu.data     0.038140                       # miss rate for demand accesses (Ratio)
system.cpu.dcache.demandMissRate::total      0.038140                       # miss rate for demand accesses (Ratio)
system.cpu.dcache.overallMissRate::cpu.data     0.038140                       # miss rate for overall accesses (Ratio)
system.cpu.dcache.overallMissRate::total     0.038140                       # miss rate for overall accesses (Ratio)
system.cpu.dcache.demandAvgMissLatency::cpu.data 54262.127927                       # average overall miss latency in ticks ((Tick/Count))
system.cpu.dcache.demandAvgMissLatency::total 54262.127927                       # average overall miss latency in ticks ((Tick/Count))
system.cpu.dcache.overallAvgMissLatency::cpu.data 54262.127927                       # average overall miss latency ((Tick/Count))
system.cpu.dcache.overallAvgMissLatency::total 54262.127927                       # average overall miss latency ((Tick/Count))
system.cpu.dcache.blockedCycles::no_mshrs            0                       # number of cycles access was blocked (Cycle)
system.cpu.dcache.blockedCycles::no_targets            0                       # number of cycles access was blocked (Cycle)
system.cpu.dcache.blockedCauses::no_mshrs            0                       # number of times access was blocked (Count)
system.cpu.dcache.blockedCauses::no_targets            0                       # number of times access was blocked (Count)
system.cpu.dcache.avgBlocked::no_mshrs            nan                       # average number of cycles each access was blocked ((Cycle/Count))
system.cpu.dcache.avgBlocked::no_targets          nan                       # average number of cycles each access was blocked ((Cycle/Count))
system.cpu.dcache.writebacks::writebacks     36302367                       # number of writebacks (Count)
system.cpu.dcache.writebacks::total          36302367                       # number of writebacks (Count)
system.cpu.dcache.demandMshrMisses::cpu.data    201604051                       # number of demand (read+write) MSHR misses (Count)
system.cpu.dcache.demandMshrMisses::total    201604051                       # number of demand (read+write) MSHR misses (Count)
system.cpu.dcache.overallMshrMisses::cpu.data    201604051                       # number of overall MSHR misses (Count)
system.cpu.dcache.overallMshrMisses::total    201604051                       # number of overall MSHR misses (Count)
system.cpu.dcache.demandMshrMissLatency::cpu.data 10536256704000                       # number of demand (read+write) MSHR miss ticks (Tick)
system.cpu.dcache.demandMshrMissLatency::total 10536256704000                       # number of demand (read+write) MSHR miss ticks (Tick)
system.cpu.dcache.overallMshrMissLatency::cpu.data 10536256704000                       # number of overall MSHR miss ticks (Tick)
system.cpu.dcache.overallMshrMissLatency::total 10536256704000                       # number of overall MSHR miss ticks (Tick)
system.cpu.dcache.demandMshrMissRate::cpu.data     0.038140                       # mshr miss ratio for demand accesses (Ratio)
system.cpu.dcache.demandMshrMissRate::total     0.038140                       # mshr miss ratio for demand accesses (Ratio)
system.cpu.dcache.overallMshrMissRate::cpu.data     0.038140                       # mshr miss ratio for overall accesses (Ratio)
system.cpu.dcache.overallMshrMissRate::total     0.038140                       # mshr miss ratio for overall accesses (Ratio)
system.cpu.dcache.demandAvgMshrMissLatency::cpu.data 52262.127927                       # average overall mshr miss latency ((Tick/Count))
system.cpu.dcache.demandAvgMshrMissLatency::total 52262.127927                       # average overall mshr miss latency ((Tick/Count))
system.cpu.dcache.overallAvgMshrMissLatency::cpu.data 52262.127927                       # average overall mshr miss latency ((Tick/Count))
system.cpu.dcache.overallAvgMshrMissLatency::total 52262.127927                       # average overall mshr miss latency ((Tick/Count))
system.cpu.dcache.replacements              201603799                       # number of replacements (Count)
system.cpu.dcache.LockedRMWReadReq.hits::cpu.data           38                       # number of LockedRMWReadReq hits (Count)
system.cpu.dcache.LockedRMWReadReq.hits::total           38                       # number of LockedRMWReadReq hits (Count)
system.cpu.dcache.LockedRMWReadReq.misses::cpu.data            4                       # number of LockedRMWReadReq misses (Count)
system.cpu.dcache.LockedRMWReadReq.misses::total            4                       # number of LockedRMWReadReq misses (Count)
system.cpu.dcache.LockedRMWReadReq.missLatency::cpu.data       268000                       # number of LockedRMWReadReq miss ticks (Tick)
system.cpu.dcache.LockedRMWReadReq.missLatency::total       268000                       # number of LockedRMWReadReq miss ticks (Tick)
system.cpu.dcache.LockedRMWReadReq.accesses::cpu.data           42                       # number of LockedRMWReadReq accesses(hits+misses) (Count)
system.cpu.dcache.LockedRMWReadReq.accesses::total           42                       # number of LockedRMWReadReq accesses(hits+misses) (Count)
system.cpu.dcache.LockedRMWReadReq.missRate::cpu.data     0.095238                       # miss rate for LockedRMWReadReq accesses (Ratio)
system.cpu.dcache.LockedRMWReadReq.missRate::total     0.095238                       # miss rate for LockedRMWReadReq accesses (Ratio)
system.cpu.dcache.LockedRMWReadReq.avgMissLatency::cpu.data        67000                       # average LockedRMWReadReq miss latency ((Tick/Count))
system.cpu.dcache.LockedRMWReadReq.avgMissLatency::total        67000                       # average LockedRMWReadReq miss latency ((Tick/Count))
system.cpu.dcache.LockedRMWReadReq.mshrMisses::cpu.data            4                       # number of LockedRMWReadReq MSHR misses (Count)
system.cpu.dcache.LockedRMWReadReq.mshrMisses::total            4                       # number of LockedRMWReadReq MSHR misses (Count)
system.cpu.dcache.LockedRMWReadReq.mshrMissLatency::cpu.data       604000                       # number of LockedRMWReadReq MSHR miss ticks (Tick)
system.cpu.dcache.LockedRMWReadReq.mshrMissLatency::total       604000                       # number of LockedRMWReadReq MSHR miss ticks (Tick)
system.cpu.dcache.LockedRMWReadReq.mshrMissRate::cpu.data     0.095238                       # mshr miss rate for LockedRMWReadReq accesses (Ratio)
system.cpu.dcache.LockedRMWReadReq.mshrMissRate::total     0.095238                       # mshr miss rate for LockedRMWReadReq accesses (Ratio)
system.cpu.dcache.LockedRMWReadReq.avgMshrMissLatency::cpu.data       151000                       # average LockedRMWReadReq mshr miss latency ((Tick/Count))
system.cpu.dcache.LockedRMWReadReq.avgMshrMissLatency::total       151000                       # average LockedRMWReadReq mshr miss latency ((Tick/Count))
system.cpu.dcache.LockedRMWWriteReq.hits::cpu.data           42                       # number of LockedRMWWriteReq hits (Count)
system.cpu.dcache.LockedRMWWriteReq.hits::total           42                       # number of LockedRMWWriteReq hits (Count)
system.cpu.dcache.LockedRMWWriteReq.accesses::cpu.data           42                       # number of LockedRMWWriteReq accesses(hits+misses) (Count)
system.cpu.dcache.LockedRMWWriteReq.accesses::total           42                       # number of LockedRMWWriteReq accesses(hits+misses) (Count)
system.cpu.dcache.ReadReq.hits::cpu.data   3759968511                       # number of ReadReq hits (Count)
system.cpu.dcache.ReadReq.hits::total      3759968511                       # number of ReadReq hits (Count)
system.cpu.dcache.ReadReq.misses::cpu.data    201151390                       # number of ReadReq misses (Count)
system.cpu.dcache.ReadReq.misses::total     201151390                       # number of ReadReq misses (Count)
system.cpu.dcache.ReadReq.missLatency::cpu.data 10912495271000                       # number of ReadReq miss ticks (Tick)
system.cpu.dcache.ReadReq.missLatency::total 10912495271000                       # number of ReadReq miss ticks (Tick)
system.cpu.dcache.ReadReq.accesses::cpu.data   3961119901                       # number of ReadReq accesses(hits+misses) (Count)
system.cpu.dcache.ReadReq.accesses::total   3961119901                       # number of ReadReq accesses(hits+misses) (Count)
system.cpu.dcache.ReadReq.missRate::cpu.data     0.050781                       # miss rate for ReadReq accesses (Ratio)
system.cpu.dcache.ReadReq.missRate::total     0.050781                       # miss rate for ReadReq accesses (Ratio)
system.cpu.dcache.ReadReq.avgMissLatency::cpu.data 54250.160891                       # average ReadReq miss latency ((Tick/Count))
system.cpu.dcache.ReadReq.avgMissLatency::total 54250.160891                       # average ReadReq miss latency ((Tick/Count))
system.cpu.dcache.ReadReq.mshrMisses::cpu.data    201151390                       # number of ReadReq MSHR misses (Count)
system.cpu.dcache.ReadReq.mshrMisses::total    201151390                       # number of ReadReq MSHR misses (Count)
system.cpu.dcache.ReadReq.mshrMissLatency::cpu.data 10510192491000                       # number of ReadReq MSHR miss ticks (Tick)
system.cpu.dcache.ReadReq.mshrMissLatency::total 10510192491000                       # number of ReadReq MSHR miss ticks (Tick)
system.cpu.dcache.ReadReq.mshrMissRate::cpu.data     0.050781                       # mshr miss rate for ReadReq accesses (Ratio)
system.cpu.dcache.ReadReq.mshrMissRate::total     0.050781                       # mshr miss rate for ReadReq accesses (Ratio)
system.cpu.dcache.ReadReq.avgMshrMissLatency::cpu.data 52250.160891                       # average ReadReq mshr miss latency ((Tick/Count))
system.cpu.dcache.ReadReq.avgMshrMissLatency::total 52250.160891                       # average ReadReq mshr miss latency ((Tick/Count))
system.cpu.dcache.WriteReq.hits::cpu.data   1324278287                       # number of WriteReq hits (Count)
system.cpu.dcache.WriteReq.hits::total     1324278287                       # number of WriteReq hits (Count)
system.cpu.dcache.WriteReq.misses::cpu.data       452661                       # number of WriteReq misses (Count)
system.cpu.dcache.WriteReq.misses::total       452661                       # number of WriteReq misses (Count)
system.cpu.dcache.WriteReq.missLatency::cpu.data  26969535000                       # number of WriteReq miss ticks (Tick)
system.cpu.dcache.WriteReq.missLatency::total  26969535000                       # number of WriteReq miss ticks (Tick)
system.cpu.dcache.WriteReq.accesses::cpu.data   1324730948                       # number of WriteReq accesses(hits+misses) (Count)
system.cpu.dcache.WriteReq.accesses::total   1324730948                       # number of WriteReq accesses(hits+misses) (Count)
system.cpu.dcache.WriteReq.missRate::cpu.data     0.000342                       # miss rate for WriteReq accesses (Ratio)
system.cpu.dcache.WriteReq.missRate::total     0.000342                       # miss rate for WriteReq accesses (Ratio)
system.cpu.dcache.WriteReq.avgMissLatency::cpu.data 59579.983696                       # average WriteReq miss latency ((Tick/Count))
system.cpu.dcache.WriteReq.avgMissLatency::total 59579.983696                       # average WriteReq miss latency ((Tick/Count))
system.cpu.dcache.WriteReq.mshrMisses::cpu.data       452661                       # number of WriteReq MSHR misses (Count)
system.cpu.dcache.WriteReq.mshrMisses::total       452661                       # number of WriteReq MSHR misses (Count)
system.cpu.dcache.WriteReq.mshrMissLatency::cpu.data  26064213000                       # number of WriteReq MSHR miss ticks (Tick)
system.cpu.dcache.WriteReq.mshrMissLatency::total  26064213000                       # number of WriteReq MSHR miss ticks (Tick)
system.cpu.dcache.WriteReq.mshrMissRate::cpu.data     0.000342                       # mshr miss rate for WriteReq accesses (Ratio)
system.cpu.dcache.WriteReq.mshrMissRate::total     0.000342                       # mshr miss rate for WriteReq accesses (Ratio)
system.cpu.dcache.WriteReq.avgMshrMissLatency::cpu.data 57579.983696                       # average WriteReq mshr miss latency ((Tick/Count))
system.cpu.dcache.WriteReq.avgMshrMissLatency::total 57579.983696                       # average WriteReq mshr miss latency ((Tick/Count))
system.cpu.dcache.power_state.pwrStateResidencyTicks::UNDEFINED 50312648575000                       # Cumulative time (in ticks) in various power states (Tick)
system.cpu.dcache.tags.tagsInUse           255.999738                       # Average ticks per tags in use ((Tick/Count))
system.cpu.dcache.tags.totalRefs           5285850933                       # Total number of references to valid blocks. (Count)
system.cpu.dcache.tags.sampledRefs          201604055                       # Sample count of references to valid blocks. (Count)
system.cpu.dcache.tags.avgRefs              26.218971                       # Average number of references to valid blocks. ((Count/Count))
system.cpu.dcache.tags.warmupTick              156000                       # The tick when the warmup percentage was hit. (Tick)
system.cpu.dcache.tags.occupancies::cpu.data   255.999738                       # Average occupied blocks per tick, per requestor ((Count/Tick))
system.cpu.dcache.tags.avgOccs::cpu.data     0.999999                       # Average percentage of cache occupancy ((Ratio/Tick))
system.cpu.dcache.tags.avgOccs::total        0.999999                       # Average percentage of cache occupancy ((Ratio/Tick))
system.cpu.dcache.tags.occupanciesTaskId::1024          256                       # Occupied blocks per task id (Count)
system.cpu.dcache.tags.ageTaskId_1024::0           41                       # Occupied blocks per task id, per block age (Count)
system.cpu.dcache.tags.ageTaskId_1024::1          121                       # Occupied blocks per task id, per block age (Count)
system.cpu.dcache.tags.ageTaskId_1024::2           94                       # Occupied blocks per task id, per block age (Count)
system.cpu.dcache.tags.ratioOccsTaskId::1024            1                       # Ratio of occupied blocks and all blocks, per task id (Ratio)
system.cpu.dcache.tags.tagAccesses        10773305921                       # Number of tag accesses (Count)
system.cpu.dcache.tags.dataAccesses       10773305921                       # Number of data accesses (Count)
system.cpu.dcache.tags.power_state.pwrStateResidencyTicks::UNDEFINED 50312648575000                       # Cumulative time (in ticks) in various power states (Tick)
system.cpu.exec_context.thread_0.numMatAluAccesses            0                       # Number of matrix alu accesses (Count)
system.cpu.exec_context.thread_0.numCallsReturns         4865                       # Number of times a function call or return occured (Count)
system.cpu.exec_context.thread_0.numMatInsts            0                       # Number of matrix instructions (Count)
system.cpu.exec_context.thread_0.numIdleCycles     0.001000                       # Number of idle cycles (Cycle)
system.cpu.exec_context.thread_0.numBusyCycles 50312648574.999001                       # Number of busy cycles (Cycle)
system.cpu.exec_context.thread_0.notIdleFraction     1.000000                       # Percentage of non-idle cycles (Ratio)
system.cpu.exec_context.thread_0.idleFraction     0.000000                       # Percentage of idle cycles (Ratio)
system.cpu.executeStats0.numInsts                   0                       # Number of executed instructions (Count)
system.cpu.executeStats0.numNop                     0                       # Number of nop insts executed (Count)
system.cpu.executeStats0.numBranches                0                       # Number of branches executed (Count)
system.cpu.executeStats0.numLoadInsts               0                       # Number of load instructions executed (Count)
system.cpu.executeStats0.numStoreInsts     5285858009                       # Number of stores executed (Count)
system.cpu.executeStats0.instRate                   0                       # Inst execution rate ((Count/Cycle))
system.cpu.executeStats0.numFpAluAccesses  10656668832                       # Number of float alu accesses (Count)
system.cpu.executeStats0.numFpRegReads    13435226174                       # Number of times the floating registers were read (Count)
system.cpu.executeStats0.numFpRegWrites    9331941174                       # Number of times the floating registers were written (Count)
system.cpu.executeStats0.numIntAluAccesses  14545653709                       # Number of integer alu accesses (Count)
system.cpu.executeStats0.numIntRegReads   17186942537                       # Number of times the integer registers were read (Count)
system.cpu.executeStats0.numIntRegWrites   6614435416                       # Number of times the integer registers were written (Count)
system.cpu.executeStats0.numMemRefs        5285858009                       # Number of memory refs (Count)
system.cpu.executeStats0.numMiscRegReads   7931242783                       # Number of times the Misc registers were read (Count)
system.cpu.executeStats0.numVecAluAccesses            0                       # Number of vector alu accesses (Count)
system.cpu.executeStats0.numDiscardedOps            0                       # Number of ops (including micro ops) which were discarded before commit (Count)
system.cpu.fetchStats0.numInsts           10617797903                       # Number of instructions fetched (thread level) (Count)
system.cpu.fetchStats0.numOps             19917697209                       # Number of ops (including micro ops) fetched (thread level) (Count)
system.cpu.fetchStats0.fetchRate             0.211036                       # Number of inst fetches per cycle ((Count/Cycle))
system.cpu.fetchStats0.numBranches         1322693424                       # Number of branches fetched (Count)
system.cpu.fetchStats0.branchRate            0.026289                       # Number of branch fetches per cycle (Ratio)
system.cpu.fetchStats0.numFetchSuspends             0                       # Number of times Execute suspended instruction fetching (Count)
system.cpu.icache.demandHits::cpu.inst    14602051832                       # number of demand (read+write) hits (Count)
system.cpu.icache.demandHits::total       14602051832                       # number of demand (read+write) hits (Count)
system.cpu.icache.overallHits::cpu.inst   14602051832                       # number of overall hits (Count)
system.cpu.icache.overallHits::total      14602051832                       # number of overall hits (Count)
system.cpu.icache.demandMisses::cpu.inst          570                       # number of demand (read+write) misses (Count)
system.cpu.icache.demandMisses::total             570                       # number of demand (read+write) misses (Count)
system.cpu.icache.overallMisses::cpu.inst          570                       # number of overall misses (Count)
system.cpu.icache.overallMisses::total            570                       # number of overall misses (Count)
system.cpu.icache.demandMissLatency::cpu.inst     34616000                       # number of demand (read+write) miss ticks (Tick)
system.cpu.icache.demandMissLatency::total     34616000                       # number of demand (read+write) miss ticks (Tick)
system.cpu.icache.overallMissLatency::cpu.inst     34616000                       # number of overall miss ticks (Tick)
system.cpu.icache.overallMissLatency::total     34616000                       # number of overall miss ticks (Tick)
system.cpu.icache.demandAccesses::cpu.inst  14602052402                       # number of demand (read+write) accesses (Count)
system.cpu.icache.demandAccesses::total   14602052402                       # number of demand (read+write) accesses (Count)
system.cpu.icache.overallAccesses::cpu.inst  14602052402                       # number of overall (read+write) accesses (Count)
system.cpu.icache.overallAccesses::total  14602052402                       # number of overall (read+write) accesses (Count)
system.cpu.icache.demandMissRate::cpu.inst     0.000000                       # miss rate for demand accesses (Ratio)
system.cpu.icache.demandMissRate::total      0.000000                       # miss rate for demand accesses (Ratio)
system.cpu.icache.overallMissRate::cpu.inst     0.000000                       # miss rate for overall accesses (Ratio)
system.cpu.icache.overallMissRate::total     0.000000                       # miss rate for overall accesses (Ratio)
system.cpu.icache.demandAvgMissLatency::cpu.inst 60729.824561                       # average overall miss latency in ticks ((Tick/Count))
system.cpu.icache.demandAvgMissLatency::total 60729.824561                       # average overall miss latency in ticks ((Tick/Count))
system.cpu.icache.overallAvgMissLatency::cpu.inst 60729.824561                       # average overall miss latency ((Tick/Count))
system.cpu.icache.overallAvgMissLatency::total 60729.824561                       # average overall miss latency ((Tick/Count))
system.cpu.icache.blockedCycles::no_mshrs            0                       # number of cycles access was blocked (Cycle)
system.cpu.icache.blockedCycles::no_targets            0                       # number of cycles access was blocked (Cycle)
system.cpu.icache.blockedCauses::no_mshrs            0                       # number of times access was blocked (Count)
system.cpu.icache.blockedCauses::no_targets            0                       # number of times access was blocked (Count)
system.cpu.icache.avgBlocked::no_mshrs            nan                       # average number of cycles each access was blocked ((Cycle/Count))
system.cpu.icache.avgBlocked::no_targets          nan                       # average number of cycles each access was blocked ((Cycle/Count))
system.cpu.icache.demandMshrMisses::cpu.inst          570                       # number of demand (read+write) MSHR misses (Count)
system.cpu.icache.demandMshrMisses::total          570                       # number of demand (read+write) MSHR misses (Count)
system.cpu.icache.overallMshrMisses::cpu.inst          570                       # number of overall MSHR misses (Count)
system.cpu.icache.overallMshrMisses::total          570                       # number of overall MSHR misses (Count)
system.cpu.icache.demandMshrMissLatency::cpu.inst     33476000                       # number of demand (read+write) MSHR miss ticks (Tick)
system.cpu.icache.demandMshrMissLatency::total     33476000                       # number of demand (read+write) MSHR miss ticks (Tick)
system.cpu.icache.overallMshrMissLatency::cpu.inst     33476000                       # number of overall MSHR miss ticks (Tick)
system.cpu.icache.overallMshrMissLatency::total     33476000                       # number of overall MSHR miss ticks (Tick)
system.cpu.icache.demandMshrMissRate::cpu.inst     0.000000                       # mshr miss ratio for demand accesses (Ratio)
system.cpu.icache.demandMshrMissRate::total     0.000000                       # mshr miss ratio for demand accesses (Ratio)
system.cpu.icache.overallMshrMissRate::cpu.inst     0.000000                       # mshr miss ratio for overall accesses (Ratio)
system.cpu.icache.overallMshrMissRate::total     0.000000                       # mshr miss ratio for overall accesses (Ratio)
system.cpu.icache.demandAvgMshrMissLatency::cpu.inst 58729.824561                       # average overall mshr miss latency ((Tick/Count))
system.cpu.icache.demandAvgMshrMissLatency::total 58729.824561                       # average overall mshr miss latency ((Tick/Count))
system.cpu.icache.overallAvgMshrMissLatency::cpu.inst 58729.824561                       # average overall mshr miss latency ((Tick/Count))
system.cpu.icache.overallAvgMshrMissLatency::total 58729.824561                       # average overall mshr miss latency ((Tick/Count))
system.cpu.icache.replacements                    133                       # number of replacements (Count)
system.cpu.icache.ReadReq.hits::cpu.inst  14602051832                       # number of ReadReq hits (Count)
system.cpu.icache.ReadReq.hits::total     14602051832                       # number of ReadReq hits (Count)
system.cpu.icache.ReadReq.misses::cpu.inst          570                       # number of ReadReq misses (Count)
system.cpu.icache.ReadReq.misses::total           570                       # number of ReadReq misses (Count)
system.cpu.icache.ReadReq.missLatency::cpu.inst     34616000                       # number of ReadReq miss ticks (Tick)
system.cpu.icache.ReadReq.missLatency::total     34616000                       # number of ReadReq miss ticks (Tick)
system.cpu.icache.ReadReq.accesses::cpu.inst  14602052402                       # number of ReadReq accesses(hits+misses) (Count)
system.cpu.icache.ReadReq.accesses::total  14602052402                       # number of ReadReq accesses(hits+misses) (Count)
system.cpu.icache.ReadReq.missRate::cpu.inst     0.000000                       # miss rate for ReadReq accesses (Ratio)
system.cpu.icache.ReadReq.missRate::total     0.000000                       # miss rate for ReadReq accesses (Ratio)
system.cpu.icache.ReadReq.avgMissLatency::cpu.inst 60729.824561                       # average ReadReq miss latency ((Tick/Count))
system.cpu.icache.ReadReq.avgMissLatency::total 60729.824561                       # average ReadReq miss latency ((Tick/Count))
system.cpu.icache.ReadReq.mshrMisses::cpu.inst          570                       # number of ReadReq MSHR misses (Count)
system.cpu.icache.ReadReq.mshrMisses::total          570                       # number of ReadReq MSHR misses (Count)
system.cpu.icache.ReadReq.mshrMissLatency::cpu.inst     33476000                       # number of ReadReq MSHR miss ticks (Tick)
system.cpu.icache.ReadReq.mshrMissLatency::total     33476000                       # number of ReadReq MSHR miss ticks (Tick)
system.cpu.icache.ReadReq.mshrMissRate::cpu.inst     0.000000                       # mshr miss rate for ReadReq accesses (Ratio)
system.cpu.icache.ReadReq.mshrMissRate::total     0.000000                       # mshr miss rate for ReadReq accesses (Ratio)
system.cpu.icache.ReadReq.avgMshrMissLatency::cpu.inst 58729.824561                       # average ReadReq mshr miss latency ((Tick/Count))
system.cpu.icache.ReadReq.avgMshrMissLatency::total 58729.824561                       # average ReadReq mshr miss latency ((Tick/Count))
system.cpu.icache.power_state.pwrStateResidencyTicks::UNDEFINED 50312648575000                       # Cumulative time (in ticks) in various power states (Tick)
system.cpu.icache.tags.tagsInUse           408.981853                       # Average ticks per tags in use ((Tick/Count))
system.cpu.icache.tags.totalRefs           1717150514                       # Total number of references to valid blocks. (Count)
system.cpu.icache.tags.sampledRefs                570                       # Sample count of references to valid blocks. (Count)
system.cpu.icache.tags.avgRefs           3012544.761404                       # Average number of references to valid blocks. ((Count/Count))
system.cpu.icache.tags.warmupTick               77000                       # The tick when the warmup percentage was hit. (Tick)
system.cpu.icache.tags.occupancies::cpu.inst   408.981853                       # Average occupied blocks per tick, per requestor ((Count/Tick))
system.cpu.icache.tags.avgOccs::cpu.inst     0.798793                       # Average percentage of cache occupancy ((Ratio/Tick))
system.cpu.icache.tags.avgOccs::total        0.798793                       # Average percentage of cache occupancy ((Ratio/Tick))
system.cpu.icache.tags.occupanciesTaskId::1024          437                       # Occupied blocks per task id (Count)
system.cpu.icache.tags.ageTaskId_1024::0           64                       # Occupied blocks per task id, per block age (Count)
system.cpu.icache.tags.ageTaskId_1024::1            7                       # Occupied blocks per task id, per block age (Count)
system.cpu.icache.tags.ageTaskId_1024::4          366                       # Occupied blocks per task id, per block age (Count)
system.cpu.icache.tags.ratioOccsTaskId::1024     0.853516                       # Ratio of occupied blocks and all blocks, per task id (Ratio)
system.cpu.icache.tags.tagAccesses        29204105374                       # Number of tag accesses (Count)
system.cpu.icache.tags.dataAccesses       29204105374                       # Number of data accesses (Count)
system.cpu.icache.tags.power_state.pwrStateResidencyTicks::UNDEFINED 50312648575000                       # Cumulative time (in ticks) in various power states (Tick)
system.cpu.interrupts.clk_domain.clock          16000                       # Clock period in ticks (Tick)
system.cpu.mmu.dtb.rdAccesses              3961119944                       # TLB accesses on read requests (Count)
system.cpu.mmu.dtb.wrAccesses              1324738067                       # TLB accesses on write requests (Count)
system.cpu.mmu.dtb.rdMisses                   2583542                       # TLB misses on read requests (Count)
system.cpu.mmu.dtb.wrMisses                     14162                       # TLB misses on write requests (Count)
system.cpu.mmu.dtb.walker.power_state.pwrStateResidencyTicks::UNDEFINED 50312648575000                       # Cumulative time (in ticks) in various power states (Tick)
system.cpu.mmu.itb.rdAccesses                       0                       # TLB accesses on read requests (Count)
system.cpu.mmu.itb.wrAccesses             14602052402                       # TLB accesses on write requests (Count)
system.cpu.mmu.itb.rdMisses                         0                       # TLB misses on read requests (Count)
system.cpu.mmu.itb.wrMisses                        62                       # TLB misses on write requests (Count)
system.cpu.mmu.itb.walker.power_state.pwrStateResidencyTicks::UNDEFINED 50312648575000                       # Cumulative time (in ticks) in various power states (Tick)
system.cpu.power_state.pwrStateResidencyTicks::ON 50312648575000                       # Cumulative time (in ticks) in various power states (Tick)
system.cpu.thread_0.numInsts                        0                       # Number of Instructions committed (Count)
system.cpu.thread_0.numOps                          0                       # Number of Ops committed (Count)
system.cpu.thread_0.numMemRefs                      0                       # Number of Memory References (Count)
system.cpu.workload.numSyscalls                    20                       # Number of system calls (Count)
system.mem_ctrl.avgPriority_writebacks::samples  13437068.00                       # Average QoS priority value for accepted requests (Count)
system.mem_ctrl.avgPriority_cpu.inst::samples       570.00                       # Average QoS priority value for accepted requests (Count)
system.mem_ctrl.avgPriority_cpu.data::samples 167155683.00                       # Average QoS priority value for accepted requests (Count)
system.mem_ctrl.priorityMinLatency       0.000000018750                       # per QoS priority minimum request to response latency (Second)
system.mem_ctrl.priorityMaxLatency       0.001151146500                       # per QoS priority maximum request to response latency (Second)
system.mem_ctrl.numReadWriteTurnArounds        747279                       # Number of turnarounds from READ to WRITE (Count)
system.mem_ctrl.numWriteReadTurnArounds        747279                       # Number of turnarounds from WRITE to READ (Count)
system.mem_ctrl.numStayReadState            383520724                       # Number of times bus staying in READ state (Count)
system.mem_ctrl.numStayWriteState            12694751                       # Number of times bus staying in WRITE state (Count)
system.mem_ctrl.readReqs                    201604625                       # Number of read requests accepted (Count)
system.mem_ctrl.writeReqs                    36302367                       # Number of write requests accepted (Count)
system.mem_ctrl.readBursts                  201604625                       # Number of controller read bursts, including those serviced by the write queue (Count)
system.mem_ctrl.writeBursts                  36302367                       # Number of controller write bursts, including those merged in the write queue (Count)
system.mem_ctrl.servicedByWrQ                34448372                       # Number of controller read bursts serviced by the write queue (Count)
system.mem_ctrl.mergedWrBursts               22865299                       # Number of controller write bursts merged with an existing one (Count)
system.mem_ctrl.neitherReadNorWriteReqs             0                       # Number of requests that are neither read nor write (Count)
system.mem_ctrl.avgRdQLen                        1.00                       # Average read queue length when enqueuing ((Count/Tick))
system.mem_ctrl.avgWrQLen                       23.11                       # Average write queue length when enqueuing ((Count/Tick))
system.mem_ctrl.numRdRetry                          0                       # Number of times read queue was full causing retry (Count)
system.mem_ctrl.numWrRetry                          0                       # Number of times write queue was full causing retry (Count)
system.mem_ctrl.readPktSize::0                      0                       # Read request sizes (log2) (Count)
system.mem_ctrl.readPktSize::1                      0                       # Read request sizes (log2) (Count)
system.mem_ctrl.readPktSize::2                      0                       # Read request sizes (log2) (Count)
system.mem_ctrl.readPktSize::3                      0                       # Read request sizes (log2) (Count)
system.mem_ctrl.readPktSize::4                      0                       # Read request sizes (log2) (Count)
system.mem_ctrl.readPktSize::5                      0                       # Read request sizes (log2) (Count)
system.mem_ctrl.readPktSize::6              201604625                       # Read request sizes (log2) (Count)
system.mem_ctrl.writePktSize::0                     0                       # Write request sizes (log2) (Count)
system.mem_ctrl.writePktSize::1                     0                       # Write request sizes (log2) (Count)
system.mem_ctrl.writePktSize::2                     0                       # Write request sizes (log2) (Count)
system.mem_ctrl.writePktSize::3                     0                       # Write request sizes (log2) (Count)
system.mem_ctrl.writePktSize::4                     0                       # Write request sizes (log2) (Count)
system.mem_ctrl.writePktSize::5                     0                       # Write request sizes (log2) (Count)
system.mem_ctrl.writePktSize::6              36302367                       # Write request sizes (log2) (Count)
system.mem_ctrl.rdQLenPdf::0                167156253                       # What read queue length does an incoming req see (Count)
system.mem_ctrl.rdQLenPdf::1                        0                       # What read queue length does an incoming req see (Count)
system.mem_ctrl.rdQLenPdf::2                        0                       # What read queue length does an incoming req see (Count)
system.mem_ctrl.rdQLenPdf::3                        0                       # What read queue length does an incoming req see (Count)
system.mem_ctrl.rdQLenPdf::4                        0                       # What read queue length does an incoming req see (Count)
system.mem_ctrl.rdQLenPdf::5                        0                       # What read queue length does an incoming req see (Count)
system.mem_ctrl.rdQLenPdf::6                        0                       # What read queue length does an incoming req see (Count)
system.mem_ctrl.rdQLenPdf::7                        0                       # What read queue length does an incoming req see (Count)
system.mem_ctrl.rdQLenPdf::8                        0                       # What read queue length does an incoming req see (Count)
system.mem_ctrl.rdQLenPdf::9                        0                       # What read queue length does an incoming req see (Count)
system.mem_ctrl.rdQLenPdf::10                       0                       # What read queue length does an incoming req see (Count)
system.mem_ctrl.rdQLenPdf::11                       0                       # What read queue length does an incoming req see (Count)
system.mem_ctrl.rdQLenPdf::12                       0                       # What read queue length does an incoming req see (Count)
system.mem_ctrl.rdQLenPdf::13                       0                       # What read queue length does an incoming req see (Count)
system.mem_ctrl.rdQLenPdf::14                       0                       # What read queue length does an incoming req see (Count)
system.mem_ctrl.rdQLenPdf::15                       0                       # What read queue length does an incoming req see (Count)
system.mem_ctrl.rdQLenPdf::16                       0                       # What read queue length does an incoming req see (Count)
system.mem_ctrl.rdQLenPdf::17                       0                       # What read queue length does an incoming req see (Count)
system.mem_ctrl.rdQLenPdf::18                       0                       # What read queue length does an incoming req see (Count)
system.mem_ctrl.rdQLenPdf::19                       0                       # What read queue length does an incoming req see (Count)
system.mem_ctrl.rdQLenPdf::20                       0                       # What read queue length does an incoming req see (Count)
system.mem_ctrl.rdQLenPdf::21                       0                       # What read queue length does an incoming req see (Count)
system.mem_ctrl.rdQLenPdf::22                       0                       # What read queue length does an incoming req see (Count)
system.mem_ctrl.rdQLenPdf::23                       0                       # What read queue length does an incoming req see (Count)
system.mem_ctrl.rdQLenPdf::24                       0                       # What read queue length does an incoming req see (Count)
system.mem_ctrl.rdQLenPdf::25                       0                       # What read queue length does an incoming req see (Count)
system.mem_ctrl.rdQLenPdf::26                       0                       # What read queue length does an incoming req see (Count)
system.mem_ctrl.rdQLenPdf::27                       0                       # What read queue length does an incoming req see (Count)
system.mem_ctrl.rdQLenPdf::28                       0                       # What read queue length does an incoming req see (Count)
system.mem_ctrl.rdQLenPdf::29                       0                       # What read queue length does an incoming req see (Count)
system.mem_ctrl.rdQLenPdf::30                       0                       # What read queue length does an incoming req see (Count)
system.mem_ctrl.rdQLenPdf::31                       0                       # What read queue length does an incoming req see (Count)
system.mem_ctrl.wrQLenPdf::0                        1                       # What write queue length does an incoming req see (Count)
system.mem_ctrl.wrQLenPdf::1                        1                       # What write queue length does an incoming req see (Count)
system.mem_ctrl.wrQLenPdf::2                        1                       # What write queue length does an incoming req see (Count)
system.mem_ctrl.wrQLenPdf::3                        1                       # What write queue length does an incoming req see (Count)
system.mem_ctrl.wrQLenPdf::4                        1                       # What write queue length does an incoming req see (Count)
system.mem_ctrl.wrQLenPdf::5                        1                       # What write queue length does an incoming req see (Count)
system.mem_ctrl.wrQLenPdf::6                        1                       # What write queue length does an incoming req see (Count)
system.mem_ctrl.wrQLenPdf::7                        1                       # What write queue length does an incoming req see (Count)
system.mem_ctrl.wrQLenPdf::8                        1                       # What write queue length does an incoming req see (Count)
system.mem_ctrl.wrQLenPdf::9                        1                       # What write queue length does an incoming req see (Count)
system.mem_ctrl.wrQLenPdf::10                       1                       # What write queue length does an incoming req see (Count)
system.mem_ctrl.wrQLenPdf::11                       1                       # What write queue length does an incoming req see (Count)
system.mem_ctrl.wrQLenPdf::12                       1                       # What write queue length does an incoming req see (Count)
system.mem_ctrl.wrQLenPdf::13                       1                       # What write queue length does an incoming req see (Count)
system.mem_ctrl.wrQLenPdf::14                       1                       # What write queue length does an incoming req see (Count)
system.mem_ctrl.wrQLenPdf::15                  740069                       # What write queue length does an incoming req see (Count)
system.mem_ctrl.wrQLenPdf::16                  740313                       # What write queue length does an incoming req see (Count)
system.mem_ctrl.wrQLenPdf::17                  747288                       # What write queue length does an incoming req see (Count)
system.mem_ctrl.wrQLenPdf::18                  747322                       # What write queue length does an incoming req see (Count)
system.mem_ctrl.wrQLenPdf::19                  747285                       # What write queue length does an incoming req see (Count)
system.mem_ctrl.wrQLenPdf::20                  747281                       # What write queue length does an incoming req see (Count)
system.mem_ctrl.wrQLenPdf::21                  747294                       # What write queue length does an incoming req see (Count)
system.mem_ctrl.wrQLenPdf::22                  747280                       # What write queue length does an incoming req see (Count)
system.mem_ctrl.wrQLenPdf::23                  747281                       # What write queue length does an incoming req see (Count)
system.mem_ctrl.wrQLenPdf::24                  747396                       # What write queue length does an incoming req see (Count)
system.mem_ctrl.wrQLenPdf::25                  747282                       # What write queue length does an incoming req see (Count)
system.mem_ctrl.wrQLenPdf::26                  747281                       # What write queue length does an incoming req see (Count)
system.mem_ctrl.wrQLenPdf::27                  747285                       # What write queue length does an incoming req see (Count)
system.mem_ctrl.wrQLenPdf::28                  747280                       # What write queue length does an incoming req see (Count)
system.mem_ctrl.wrQLenPdf::29                  747279                       # What write queue length does an incoming req see (Count)
system.mem_ctrl.wrQLenPdf::30                  747279                       # What write queue length does an incoming req see (Count)
system.mem_ctrl.wrQLenPdf::31                  747279                       # What write queue length does an incoming req see (Count)
system.mem_ctrl.wrQLenPdf::32                  747279                       # What write queue length does an incoming req see (Count)
system.mem_ctrl.wrQLenPdf::33                       0                       # What write queue length does an incoming req see (Count)
system.mem_ctrl.wrQLenPdf::34                       0                       # What write queue length does an incoming req see (Count)
system.mem_ctrl.wrQLenPdf::35                       0                       # What write queue length does an incoming req see (Count)
system.mem_ctrl.wrQLenPdf::36                       0                       # What write queue length does an incoming req see (Count)
system.mem_ctrl.wrQLenPdf::37                       0                       # What write queue length does an incoming req see (Count)
system.mem_ctrl.wrQLenPdf::38                       0                       # What write queue length does an incoming req see (Count)
system.mem_ctrl.wrQLenPdf::39                       0                       # What write queue length does an incoming req see (Count)
system.mem_ctrl.wrQLenPdf::40                       0                       # What write queue length does an incoming req see (Count)
system.mem_ctrl.wrQLenPdf::41                       0                       # What write queue length does an incoming req see (Count)
system.mem_ctrl.wrQLenPdf::42                       0                       # What write queue length does an incoming req see (Count)
system.mem_ctrl.wrQLenPdf::43                       0                       # What write queue length does an incoming req see (Count)
system.mem_ctrl.wrQLenPdf::44                       0                       # What write queue length does an incoming req see (Count)
system.mem_ctrl.wrQLenPdf::45                       0                       # What write queue length does an incoming req see (Count)
system.mem_ctrl.wrQLenPdf::46                       0                       # What write queue length does an incoming req see (Count)
system.mem_ctrl.wrQLenPdf::47                       0                       # What write queue length does an incoming req see (Count)
system.mem_ctrl.wrQLenPdf::48                       0                       # What write queue length does an incoming req see (Count)
system.mem_ctrl.wrQLenPdf::49                       0                       # What write queue length does an incoming req see (Count)
system.mem_ctrl.wrQLenPdf::50                       0                       # What write queue length does an incoming req see (Count)
system.mem_ctrl.wrQLenPdf::51                       0                       # What write queue length does an incoming req see (Count)
system.mem_ctrl.wrQLenPdf::52                       0                       # What write queue length does an incoming req see (Count)
system.mem_ctrl.wrQLenPdf::53                       0                       # What write queue length does an incoming req see (Count)
system.mem_ctrl.wrQLenPdf::54                       0                       # What write queue length does an incoming req see (Count)
system.mem_ctrl.wrQLenPdf::55                       0                       # What write queue length does an incoming req see (Count)
system.mem_ctrl.wrQLenPdf::56                       0                       # What write queue length does an incoming req see (Count)
system.mem_ctrl.wrQLenPdf::57                       0                       # What write queue length does an incoming req see (Count)
system.mem_ctrl.wrQLenPdf::58                       0                       # What write queue length does an incoming req see (Count)
system.mem_ctrl.wrQLenPdf::59                       0                       # What write queue length does an incoming req see (Count)
system.mem_ctrl.wrQLenPdf::60                       0                       # What write queue length does an incoming req see (Count)
system.mem_ctrl.wrQLenPdf::61                       0                       # What write queue length does an incoming req see (Count)
system.mem_ctrl.wrQLenPdf::62                       0                       # What write queue length does an incoming req see (Count)
system.mem_ctrl.wrQLenPdf::63                       0                       # What write queue length does an incoming req see (Count)
system.mem_ctrl.rdPerTurnAround::samples       747279                       # Reads before turning the bus around for writes (Count)
system.mem_ctrl.rdPerTurnAround::mean      223.686434                       # Reads before turning the bus around for writes (Count)
system.mem_ctrl.rdPerTurnAround::gmean      41.379369                       # Reads before turning the bus around for writes (Count)
system.mem_ctrl.rdPerTurnAround::stdev     511.739516                       # Reads before turning the bus around for writes (Count)
system.mem_ctrl.rdPerTurnAround::0-63          569036     76.15%     76.15% # Reads before turning the bus around for writes (Count)
system.mem_ctrl.rdPerTurnAround::64-127          1641      0.22%     76.37% # Reads before turning the bus around for writes (Count)
system.mem_ctrl.rdPerTurnAround::128-191        86482     11.57%     87.94% # Reads before turning the bus around for writes (Count)
system.mem_ctrl.rdPerTurnAround::192-255           16      0.00%     87.94% # Reads before turning the bus around for writes (Count)
system.mem_ctrl.rdPerTurnAround::256-319          214      0.03%     87.97% # Reads before turning the bus around for writes (Count)
system.mem_ctrl.rdPerTurnAround::320-383           20      0.00%     87.97% # Reads before turning the bus around for writes (Count)
system.mem_ctrl.rdPerTurnAround::384-447          235      0.03%     88.01% # Reads before turning the bus around for writes (Count)
system.mem_ctrl.rdPerTurnAround::448-511           10      0.00%     88.01% # Reads before turning the bus around for writes (Count)
system.mem_ctrl.rdPerTurnAround::512-575          189      0.03%     88.03% # Reads before turning the bus around for writes (Count)
system.mem_ctrl.rdPerTurnAround::576-639           78      0.01%     88.04% # Reads before turning the bus around for writes (Count)
system.mem_ctrl.rdPerTurnAround::640-703          101      0.01%     88.06% # Reads before turning the bus around for writes (Count)
system.mem_ctrl.rdPerTurnAround::704-767          136      0.02%     88.07% # Reads before turning the bus around for writes (Count)
system.mem_ctrl.rdPerTurnAround::768-831           89      0.01%     88.09% # Reads before turning the bus around for writes (Count)
system.mem_ctrl.rdPerTurnAround::832-895          177      0.02%     88.11% # Reads before turning the bus around for writes (Count)
system.mem_ctrl.rdPerTurnAround::896-959           67      0.01%     88.12% # Reads before turning the bus around for writes (Count)
system.mem_ctrl.rdPerTurnAround::960-1023          198      0.03%     88.14% # Reads before turning the bus around for writes (Count)
system.mem_ctrl.rdPerTurnAround::1024-1087           88      0.01%     88.16% # Reads before turning the bus around for writes (Count)
system.mem_ctrl.rdPerTurnAround::1088-1151          187      0.03%     88.18% # Reads before turning the bus around for writes (Count)
system.mem_ctrl.rdPerTurnAround::1152-1215           51      0.01%     88.19% # Reads before turning the bus around for writes (Count)
system.mem_ctrl.rdPerTurnAround::1216-1279          205      0.03%     88.22% # Reads before turning the bus around for writes (Count)
system.mem_ctrl.rdPerTurnAround::1280-1343           70      0.01%     88.23% # Reads before turning the bus around for writes (Count)
system.mem_ctrl.rdPerTurnAround::1344-1407          151      0.02%     88.25% # Reads before turning the bus around for writes (Count)
system.mem_ctrl.rdPerTurnAround::1408-1471           73      0.01%     88.26% # Reads before turning the bus around for writes (Count)
system.mem_ctrl.rdPerTurnAround::1472-1535          720      0.10%     88.35% # Reads before turning the bus around for writes (Count)
system.mem_ctrl.rdPerTurnAround::1536-1599        43870      5.87%     94.22% # Reads before turning the bus around for writes (Count)
system.mem_ctrl.rdPerTurnAround::1600-1663          465      0.06%     94.28% # Reads before turning the bus around for writes (Count)
system.mem_ctrl.rdPerTurnAround::1664-1727        41885      5.61%     99.89% # Reads before turning the bus around for writes (Count)
system.mem_ctrl.rdPerTurnAround::1728-1791          293      0.04%     99.93% # Reads before turning the bus around for writes (Count)
system.mem_ctrl.rdPerTurnAround::1792-1855          532      0.07%    100.00% # Reads before turning the bus around for writes (Count)
system.mem_ctrl.rdPerTurnAround::total         747279                       # Reads before turning the bus around for writes (Count)
system.mem_ctrl.wrPerTurnAround::samples       747279                       # Writes before turning the bus around for reads (Count)
system.mem_ctrl.wrPerTurnAround::mean       17.981288                       # Writes before turning the bus around for reads (Count)
system.mem_ctrl.wrPerTurnAround::gmean      17.980165                       # Writes before turning the bus around for reads (Count)
system.mem_ctrl.wrPerTurnAround::stdev       0.193519                       # Writes before turning the bus around for reads (Count)
system.mem_ctrl.wrPerTurnAround::16              6952      0.93%      0.93% # Writes before turning the bus around for reads (Count)
system.mem_ctrl.wrPerTurnAround::17               259      0.03%      0.96% # Writes before turning the bus around for reads (Count)
system.mem_ctrl.wrPerTurnAround::18            739888     99.01%     99.98% # Writes before turning the bus around for reads (Count)
system.mem_ctrl.wrPerTurnAround::19               180      0.02%    100.00% # Writes before turning the bus around for reads (Count)
system.mem_ctrl.wrPerTurnAround::total         747279                       # Writes before turning the bus around for reads (Count)
system.mem_ctrl.bytesReadWrQ               2204695808                       # Total number of bytes read from write queue (Byte)
system.mem_ctrl.bytesReadSys              12902696000                       # Total read bytes from the system interface side (Byte)
system.mem_ctrl.bytesWrittenSys            2323351488                       # Total written bytes from the system interface side (Byte)
system.mem_ctrl.avgRdBWSys               256450343.31210423                       # Average system read bandwidth in Byte/s ((Byte/Second))
system.mem_ctrl.avgWrBWSys               46178278.30185941                       # Average system write bandwidth in Byte/s ((Byte/Second))
system.mem_ctrl.totGap                   50312648478000                       # Total gap between requests (Tick)
system.mem_ctrl.avgGap                      211480.33                       # Average gap between requests ((Tick/Count))
system.mem_ctrl.requestorReadBytes::cpu.inst        36480                       # Per-requestor bytes read from memory (Byte)
system.mem_ctrl.requestorReadBytes::cpu.data  10697963712                       # Per-requestor bytes read from memory (Byte)
system.mem_ctrl.requestorWriteBytes::writebacks    859970496                       # Per-requestor bytes write to memory (Byte)
system.mem_ctrl.requestorReadRate::cpu.inst 725.066181829407                       # Per-requestor bytes read from memory rate ((Byte/Second))
system.mem_ctrl.requestorReadRate::cpu.data 212629706.743678420782                       # Per-requestor bytes read from memory rate ((Byte/Second))
system.mem_ctrl.requestorWriteRate::writebacks 17092530.811969880015                       # Per-requestor bytes write to memory rate ((Byte/Second))
system.mem_ctrl.requestorReadAccesses::cpu.inst          570                       # Per-requestor read serviced memory accesses (Count)
system.mem_ctrl.requestorReadAccesses::cpu.data    201604055                       # Per-requestor read serviced memory accesses (Count)
system.mem_ctrl.requestorWriteAccesses::writebacks     36302367                       # Per-requestor write serviced memory accesses (Count)
system.mem_ctrl.requestorReadTotalLat::cpu.inst     15036250                       # Per-requestor read total memory access latency (Tick)
system.mem_ctrl.requestorReadTotalLat::cpu.data 4384739462750                       # Per-requestor read total memory access latency (Tick)
system.mem_ctrl.requestorWriteTotalLat::writebacks 1158002347832500                       # Per-requestor write total memory access latency (Tick)
system.mem_ctrl.requestorReadAvgLat::cpu.inst     26379.39                       # Per-requestor read average memory access latency ((Tick/Count))
system.mem_ctrl.requestorReadAvgLat::cpu.data     21749.26                       # Per-requestor read average memory access latency ((Tick/Count))
system.mem_ctrl.requestorWriteAvgLat::writebacks  31898811.11                       # Per-requestor write average memory access latency ((Tick/Count))
system.mem_ctrl.dram.bytesRead::cpu.inst        36480                       # Number of bytes read from this memory (Byte)
system.mem_ctrl.dram.bytesRead::cpu.data  12902659520                       # Number of bytes read from this memory (Byte)
system.mem_ctrl.dram.bytesRead::total     12902696000                       # Number of bytes read from this memory (Byte)
system.mem_ctrl.dram.bytesInstRead::cpu.inst        36480                       # Number of instructions bytes read from this memory (Byte)
system.mem_ctrl.dram.bytesInstRead::total        36480                       # Number of instructions bytes read from this memory (Byte)
system.mem_ctrl.dram.bytesWritten::writebacks   2323351488                       # Number of bytes written to this memory (Byte)
system.mem_ctrl.dram.bytesWritten::total   2323351488                       # Number of bytes written to this memory (Byte)
system.mem_ctrl.dram.numReads::cpu.inst           570                       # Number of read requests responded to by this memory (Count)
system.mem_ctrl.dram.numReads::cpu.data     201604055                       # Number of read requests responded to by this memory (Count)
system.mem_ctrl.dram.numReads::total        201604625                       # Number of read requests responded to by this memory (Count)
system.mem_ctrl.dram.numWrites::writebacks     36302367                       # Number of write requests responded to by this memory (Count)
system.mem_ctrl.dram.numWrites::total        36302367                       # Number of write requests responded to by this memory (Count)
system.mem_ctrl.dram.bwRead::cpu.inst             725                       # Total read bandwidth from this memory ((Byte/Second))
system.mem_ctrl.dram.bwRead::cpu.data       256449618                       # Total read bandwidth from this memory ((Byte/Second))
system.mem_ctrl.dram.bwRead::total          256450343                       # Total read bandwidth from this memory ((Byte/Second))
system.mem_ctrl.dram.bwInstRead::cpu.inst          725                       # Instruction read bandwidth from this memory ((Byte/Second))
system.mem_ctrl.dram.bwInstRead::total            725                       # Instruction read bandwidth from this memory ((Byte/Second))
system.mem_ctrl.dram.bwWrite::writebacks     46178278                       # Write bandwidth from this memory ((Byte/Second))
system.mem_ctrl.dram.bwWrite::total          46178278                       # Write bandwidth from this memory ((Byte/Second))
system.mem_ctrl.dram.bwTotal::writebacks     46178278                       # Total bandwidth to/from this memory ((Byte/Second))
system.mem_ctrl.dram.bwTotal::cpu.inst            725                       # Total bandwidth to/from this memory ((Byte/Second))
system.mem_ctrl.dram.bwTotal::cpu.data      256449618                       # Total bandwidth to/from this memory ((Byte/Second))
system.mem_ctrl.dram.bwTotal::total         302628622                       # Total bandwidth to/from this memory ((Byte/Second))
system.mem_ctrl.dram.readBursts             167156253                       # Number of DRAM read bursts (Count)
system.mem_ctrl.dram.writeBursts             13437039                       # Number of DRAM write bursts (Count)
system.mem_ctrl.dram.perBankRdBursts::0      10445227                       # Per bank write bursts (Count)
system.mem_ctrl.dram.perBankRdBursts::1      10374790                       # Per bank write bursts (Count)
system.mem_ctrl.dram.perBankRdBursts::2      10376649                       # Per bank write bursts (Count)
system.mem_ctrl.dram.perBankRdBursts::3      10375382                       # Per bank write bursts (Count)
system.mem_ctrl.dram.perBankRdBursts::4      10374012                       # Per bank write bursts (Count)
system.mem_ctrl.dram.perBankRdBursts::5      10375551                       # Per bank write bursts (Count)
system.mem_ctrl.dram.perBankRdBursts::6      10374558                       # Per bank write bursts (Count)
system.mem_ctrl.dram.perBankRdBursts::7      10438131                       # Per bank write bursts (Count)
system.mem_ctrl.dram.perBankRdBursts::8      10503288                       # Per bank write bursts (Count)
system.mem_ctrl.dram.perBankRdBursts::9      10503298                       # Per bank write bursts (Count)
system.mem_ctrl.dram.perBankRdBursts::10     10502057                       # Per bank write bursts (Count)
system.mem_ctrl.dram.perBankRdBursts::11     10502597                       # Per bank write bursts (Count)
system.mem_ctrl.dram.perBankRdBursts::12     10503043                       # Per bank write bursts (Count)
system.mem_ctrl.dram.perBankRdBursts::13     10502046                       # Per bank write bursts (Count)
system.mem_ctrl.dram.perBankRdBursts::14     10502633                       # Per bank write bursts (Count)
system.mem_ctrl.dram.perBankRdBursts::15     10502991                       # Per bank write bursts (Count)
system.mem_ctrl.dram.perBankWrBursts::0        837169                       # Per bank write bursts (Count)
system.mem_ctrl.dram.perBankWrBursts::1        850767                       # Per bank write bursts (Count)
system.mem_ctrl.dram.perBankWrBursts::2        850458                       # Per bank write bursts (Count)
system.mem_ctrl.dram.perBankWrBursts::3        839940                       # Per bank write bursts (Count)
system.mem_ctrl.dram.perBankWrBursts::4        838287                       # Per bank write bursts (Count)
system.mem_ctrl.dram.perBankWrBursts::5        838687                       # Per bank write bursts (Count)
system.mem_ctrl.dram.perBankWrBursts::6        837423                       # Per bank write bursts (Count)
system.mem_ctrl.dram.perBankWrBursts::7        837811                       # Per bank write bursts (Count)
system.mem_ctrl.dram.perBankWrBursts::8        838821                       # Per bank write bursts (Count)
system.mem_ctrl.dram.perBankWrBursts::9        838336                       # Per bank write bursts (Count)
system.mem_ctrl.dram.perBankWrBursts::10       837971                       # Per bank write bursts (Count)
system.mem_ctrl.dram.perBankWrBursts::11       838763                       # Per bank write bursts (Count)
system.mem_ctrl.dram.perBankWrBursts::12       838540                       # Per bank write bursts (Count)
system.mem_ctrl.dram.perBankWrBursts::13       837320                       # Per bank write bursts (Count)
system.mem_ctrl.dram.perBankWrBursts::14       838751                       # Per bank write bursts (Count)
system.mem_ctrl.dram.perBankWrBursts::15       837995                       # Per bank write bursts (Count)
system.mem_ctrl.dram.totQLat             1250574755250                       # Total ticks spent queuing (Tick)
system.mem_ctrl.dram.totBusLat           835781265000                       # Total ticks spent in databus transfers (Tick)
system.mem_ctrl.dram.totMemAccLat        4384754499000                       # Total ticks spent from burst creation until serviced by the DRAM (Tick)
system.mem_ctrl.dram.avgQLat                  7481.47                       # Average queueing delay per DRAM burst ((Tick/Count))
system.mem_ctrl.dram.avgBusLat                5000.00                       # Average bus latency per DRAM burst ((Tick/Count))
system.mem_ctrl.dram.avgMemAccLat            26231.47                       # Average memory access latency per DRAM burst ((Tick/Count))
system.mem_ctrl.dram.readRowHits            152745185                       # Number of row buffer hits during reads (Count)
system.mem_ctrl.dram.writeRowHits            12082652                       # Number of row buffer hits during writes (Count)
system.mem_ctrl.dram.readRowHitRate             91.38                       # Row buffer hit rate for reads (Ratio)
system.mem_ctrl.dram.writeRowHitRate            89.92                       # Row buffer hit rate for writes (Ratio)
system.mem_ctrl.dram.bytesPerActivate::samples     15765453                       # Bytes accessed per row activation (Byte)
system.mem_ctrl.dram.bytesPerActivate::mean   733.120101                       # Bytes accessed per row activation (Byte)
system.mem_ctrl.dram.bytesPerActivate::gmean   627.276371                       # Bytes accessed per row activation (Byte)
system.mem_ctrl.dram.bytesPerActivate::stdev   300.846336                       # Bytes accessed per row activation (Byte)
system.mem_ctrl.dram.bytesPerActivate::0-127       604718      3.84%      3.84% # Bytes accessed per row activation (Byte)
system.mem_ctrl.dram.bytesPerActivate::128-255       893440      5.67%      9.50% # Bytes accessed per row activation (Byte)
system.mem_ctrl.dram.bytesPerActivate::256-383       591122      3.75%     13.25% # Bytes accessed per row activation (Byte)
system.mem_ctrl.dram.bytesPerActivate::384-511       528711      3.35%     16.61% # Bytes accessed per row activation (Byte)
system.mem_ctrl.dram.bytesPerActivate::512-639      1696172     10.76%     27.36% # Bytes accessed per row activation (Byte)
system.mem_ctrl.dram.bytesPerActivate::640-767      4144067     26.29%     53.65% # Bytes accessed per row activation (Byte)
system.mem_ctrl.dram.bytesPerActivate::768-895       265607      1.68%     55.34% # Bytes accessed per row activation (Byte)
system.mem_ctrl.dram.bytesPerActivate::896-1023       248753      1.58%     56.91% # Bytes accessed per row activation (Byte)
system.mem_ctrl.dram.bytesPerActivate::1024-1151      6792863     43.09%    100.00% # Bytes accessed per row activation (Byte)
system.mem_ctrl.dram.bytesPerActivate::total     15765453                       # Bytes accessed per row activation (Byte)
system.mem_ctrl.dram.bytesRead            10698000192                       # Total bytes read (Byte)
system.mem_ctrl.dram.bytesWritten           859970496                       # Total bytes written (Byte)
system.mem_ctrl.dram.avgRdBW               212.630432                       # Average DRAM read bandwidth in MiBytes/s ((Byte/Second))
system.mem_ctrl.dram.avgWrBW                17.092531                       # Average DRAM write bandwidth in MiBytes/s ((Byte/Second))
system.mem_ctrl.dram.peakBW                  12800.00                       # Theoretical peak bandwidth in MiByte/s ((Byte/Second))
system.mem_ctrl.dram.busUtil                     1.79                       # Data bus utilization in percentage (Ratio)
system.mem_ctrl.dram.busUtilRead                 1.66                       # Data bus utilization in percentage for reads (Ratio)
system.mem_ctrl.dram.busUtilWrite                0.13                       # Data bus utilization in percentage for writes (Ratio)
system.mem_ctrl.dram.pageHitRate                91.27                       # Row buffer hit rate, read and write combined (Ratio)
system.mem_ctrl.dram.power_state.pwrStateResidencyTicks::UNDEFINED 50312648575000                       # Cumulative time (in ticks) in various power states (Tick)
system.mem_ctrl.dram.rank0.actEnergy      56031764040                       # Energy for activate commands per rank (pJ) (Joule)
system.mem_ctrl.dram.rank0.preEnergy      29781588870                       # Energy for precharge commands per rank (pJ) (Joule)
system.mem_ctrl.dram.rank0.readEnergy    593578902000                       # Energy for read commands per rank (pJ) (Joule)
system.mem_ctrl.dram.rank0.writeEnergy    35133429240                       # Energy for write commands per rank (pJ) (Joule)
system.mem_ctrl.dram.rank0.refreshEnergy 3971637727200.000488                       # Energy for refresh commands per rank (pJ) (Joule)
system.mem_ctrl.dram.rank0.actBackEnergy 11947064084070                       # Energy for active background per rank (pJ) (Joule)
system.mem_ctrl.dram.rank0.preBackEnergy 9259371508320                       # Energy for precharge background per rank (pJ) (Joule)
system.mem_ctrl.dram.rank0.actPowerDownEnergy            0                       # Energy for active power-down per rank (pJ) (Joule)
system.mem_ctrl.dram.rank0.prePowerDownEnergy            0                       # Energy for precharge power-down per rank (pJ) (Joule)
system.mem_ctrl.dram.rank0.selfRefreshEnergy            0                       # Energy for self refresh per rank (pJ) (Joule)
system.mem_ctrl.dram.rank0.totalEnergy   25892599003740                       # Total energy per rank (pJ) (Joule)
system.mem_ctrl.dram.rank0.averagePower    514.633988                       # Core power per rank (mW) (Watt)
system.mem_ctrl.dram.rank0.totalIdleTime            0                       # Total Idle time Per DRAM Rank (Tick)
system.mem_ctrl.dram.rank0.pwrStateTime::IDLE 23935890925500                       # Time in different power states (Tick)
system.mem_ctrl.dram.rank0.pwrStateTime::REF 1680049800000                       # Time in different power states (Tick)
system.mem_ctrl.dram.rank0.pwrStateTime::SREF            0                       # Time in different power states (Tick)
system.mem_ctrl.dram.rank0.pwrStateTime::PRE_PDN            0                       # Time in different power states (Tick)
system.mem_ctrl.dram.rank0.pwrStateTime::ACT 24696707849500                       # Time in different power states (Tick)
system.mem_ctrl.dram.rank0.pwrStateTime::ACT_PDN            0                       # Time in different power states (Tick)
system.mem_ctrl.dram.rank1.actEnergy      56533584660                       # Energy for activate commands per rank (pJ) (Joule)
system.mem_ctrl.dram.rank1.preEnergy      30048305265                       # Energy for precharge commands per rank (pJ) (Joule)
system.mem_ctrl.dram.rank1.readEnergy    599916744420                       # Energy for read commands per rank (pJ) (Joule)
system.mem_ctrl.dram.rank1.writeEnergy    35007914340                       # Energy for write commands per rank (pJ) (Joule)
system.mem_ctrl.dram.rank1.refreshEnergy 3971637727200.000488                       # Energy for refresh commands per rank (pJ) (Joule)
system.mem_ctrl.dram.rank1.actBackEnergy 12054007901310                       # Energy for active background per rank (pJ) (Joule)
system.mem_ctrl.dram.rank1.preBackEnergy 9169313556960                       # Energy for precharge background per rank (pJ) (Joule)
system.mem_ctrl.dram.rank1.actPowerDownEnergy            0                       # Energy for active power-down per rank (pJ) (Joule)
system.mem_ctrl.dram.rank1.prePowerDownEnergy            0                       # Energy for precharge power-down per rank (pJ) (Joule)
system.mem_ctrl.dram.rank1.selfRefreshEnergy            0                       # Energy for self refresh per rank (pJ) (Joule)
system.mem_ctrl.dram.rank1.totalEnergy   25916465734155                       # Total energy per rank (pJ) (Joule)
system.mem_ctrl.dram.rank1.averagePower    515.108357                       # Core power per rank (mW) (Watt)
system.mem_ctrl.dram.rank1.totalIdleTime            0                       # Total Idle time Per DRAM Rank (Tick)
system.mem_ctrl.dram.rank1.pwrStateTime::IDLE 23700515587000                       # Time in different power states (Tick)
system.mem_ctrl.dram.rank1.pwrStateTime::REF 1680049800000                       # Time in different power states (Tick)
system.mem_ctrl.dram.rank1.pwrStateTime::SREF            0                       # Time in different power states (Tick)
system.mem_ctrl.dram.rank1.pwrStateTime::PRE_PDN            0                       # Time in different power states (Tick)
system.mem_ctrl.dram.rank1.pwrStateTime::ACT 24932083188000                       # Time in different power states (Tick)
system.mem_ctrl.dram.rank1.pwrStateTime::ACT_PDN            0                       # Time in different power states (Tick)
system.mem_ctrl.power_state.pwrStateResidencyTicks::UNDEFINED 50312648575000                       # Cumulative time (in ticks) in various power states (Tick)
system.membus.transDist::ReadResp           201151960                       # Transaction distribution (Count)
system.membus.transDist::WritebackDirty      36302367                       # Transaction distribution (Count)
system.membus.transDist::CleanEvict         165301565                       # Transaction distribution (Count)
system.membus.transDist::ReadExReq             452665                       # Transaction distribution (Count)
system.membus.transDist::ReadExResp            452665                       # Transaction distribution (Count)
system.membus.transDist::ReadSharedReq      201151960                       # Transaction distribution (Count)
system.membus.pktCount_system.cpu.icache.mem_side_port::system.mem_ctrl.port         1273                       # Packet count per connected requestor and responder (Count)
system.membus.pktCount_system.cpu.icache.mem_side_port::total         1273                       # Packet count per connected requestor and responder (Count)
system.membus.pktCount_system.cpu.dcache.mem_side_port::system.mem_ctrl.port    604811909                       # Packet count per connected requestor and responder (Count)
system.membus.pktCount_system.cpu.dcache.mem_side_port::total    604811909                       # Packet count per connected requestor and responder (Count)
system.membus.pktCount::total               604813182                       # Packet count per connected requestor and responder (Count)
system.membus.pktSize_system.cpu.icache.mem_side_port::system.mem_ctrl.port        36480                       # Cumulative packet size per connected requestor and responder (Byte)
system.membus.pktSize_system.cpu.icache.mem_side_port::total        36480                       # Cumulative packet size per connected requestor and responder (Byte)
system.membus.pktSize_system.cpu.dcache.mem_side_port::system.mem_ctrl.port  15226011008                       # Cumulative packet size per connected requestor and responder (Byte)
system.membus.pktSize_system.cpu.dcache.mem_side_port::total  15226011008                       # Cumulative packet size per connected requestor and responder (Byte)
system.membus.pktSize::total              15226047488                       # Cumulative packet size per connected requestor and responder (Byte)
system.membus.snoops                                0                       # Total snoops (Count)
system.membus.snoopTraffic                          0                       # Total snoop traffic (Byte)
system.membus.snoopFanout::samples          201604625                       # Request fanout histogram (Count)
system.membus.snoopFanout::mean                     0                       # Request fanout histogram (Count)
system.membus.snoopFanout::stdev                    0                       # Request fanout histogram (Count)
system.membus.snoopFanout::underflows               0      0.00%      0.00% # Request fanout histogram (Count)
system.membus.snoopFanout::0                201604625    100.00%    100.00% # Request fanout histogram (Count)
system.membus.snoopFanout::1                        0      0.00%    100.00% # Request fanout histogram (Count)
system.membus.snoopFanout::2                        0      0.00%    100.00% # Request fanout histogram (Count)
system.membus.snoopFanout::overflows                0      0.00%    100.00% # Request fanout histogram (Count)
system.membus.snoopFanout::min_value                0                       # Request fanout histogram (Count)
system.membus.snoopFanout::max_value                0                       # Request fanout histogram (Count)
system.membus.snoopFanout::total            201604625                       # Request fanout histogram (Count)
system.membus.power_state.pwrStateResidencyTicks::UNDEFINED 50312648575000                       # Cumulative time (in ticks) in various power states (Tick)
system.membus.reqLayer2.occupancy        548418025000                       # Layer occupancy (ticks) (Tick)
system.membus.reqLayer2.utilization               0.0                       # Layer utilization (Ratio)
system.membus.respLayer1.occupancy            3037750                       # Layer occupancy (ticks) (Tick)
system.membus.respLayer1.utilization              0.0                       # Layer utilization (Ratio)
system.membus.respLayer2.occupancy       1052691736250                       # Layer occupancy (ticks) (Tick)
system.membus.respLayer2.utilization              0.0                       # Layer utilization (Ratio)
system.membus.snoop_filter.totRequests      403208557                       # Total number of requests made to the snoop filter. (Count)
system.membus.snoop_filter.hitSingleRequests    201603932                       # Number of requests hitting in the snoop filter with a single holder of the requested data. (Count)
system.membus.snoop_filter.hitMultiRequests            0                       # Number of requests hitting in the snoop filter with multiple (>1) holders of the requested data. (Count)
system.membus.snoop_filter.totSnoops                0                       # Total number of snoops made to the snoop filter. (Count)
system.membus.snoop_filter.hitSingleSnoops            0                       # Number of snoops hitting in the snoop filter with a single holder of the requested data. (Count)
system.membus.snoop_filter.hitMultiSnoops            0                       # Number of snoops hitting in the snoop filter with multiple (>1) holders of the requested data. (Count)
system.workload.inst.arm                            0                       # number of arm instructions executed (Count)
system.workload.inst.quiesce                        0                       # number of quiesce instructions executed (Count)

---------- End Simulation Statistics   ----------
