
---------- Begin Simulation Statistics ----------
simSeconds                                   3.898254                       # Number of seconds simulated (Second)
simTicks                                 3898253719458                       # Number of ticks simulated (Tick)
finalTick                                3898253719458                       # Number of ticks from beginning of simulation (restored from checkpoints and never reset) (Tick)
simFreq                                  1000000000000                       # The number of ticks per simulated second ((Tick/Second))
hostSeconds                                  31667.94                       # Real time elapsed on the host (Second)
hostTickRate                                123097800                       # The number of ticks simulated per host second (ticks/s) ((Tick/Second))
hostMemory                                    1212296                       # Number of bytes of host memory used (Byte)
simInsts                                  10727777246                       # Number of instructions simulated (Count)
simOps                                    22767742490                       # Number of ops (including micro ops) simulated (Count)
hostInstRate                                   338758                       # Simulator instruction rate (inst/s) ((Count/Second))
hostOpRate                                     718952                       # Simulator op (including micro ops) rate (op/s) ((Count/Second))
board.cache_hierarchy.l1d-cache-0.demandHits::processor.cores0.core.data   3968488329                       # number of demand (read+write) hits (Count)
board.cache_hierarchy.l1d-cache-0.demandHits::total   3968488329                       # number of demand (read+write) hits (Count)
board.cache_hierarchy.l1d-cache-0.overallHits::processor.cores0.core.data   3968488329                       # number of overall hits (Count)
board.cache_hierarchy.l1d-cache-0.overallHits::total   3968488329                       # number of overall hits (Count)
board.cache_hierarchy.l1d-cache-0.demandMisses::processor.cores0.core.data      2758047                       # number of demand (read+write) misses (Count)
board.cache_hierarchy.l1d-cache-0.demandMisses::total      2758047                       # number of demand (read+write) misses (Count)
board.cache_hierarchy.l1d-cache-0.overallMisses::processor.cores0.core.data      2758047                       # number of overall misses (Count)
board.cache_hierarchy.l1d-cache-0.overallMisses::total      2758047                       # number of overall misses (Count)
board.cache_hierarchy.l1d-cache-0.demandMissLatency::processor.cores0.core.data 118604879397                       # number of demand (read+write) miss ticks (Tick)
board.cache_hierarchy.l1d-cache-0.demandMissLatency::total 118604879397                       # number of demand (read+write) miss ticks (Tick)
board.cache_hierarchy.l1d-cache-0.overallMissLatency::processor.cores0.core.data 118604879397                       # number of overall miss ticks (Tick)
board.cache_hierarchy.l1d-cache-0.overallMissLatency::total 118604879397                       # number of overall miss ticks (Tick)
board.cache_hierarchy.l1d-cache-0.demandAccesses::processor.cores0.core.data   3971246376                       # number of demand (read+write) accesses (Count)
board.cache_hierarchy.l1d-cache-0.demandAccesses::total   3971246376                       # number of demand (read+write) accesses (Count)
board.cache_hierarchy.l1d-cache-0.overallAccesses::processor.cores0.core.data   3971246376                       # number of overall (read+write) accesses (Count)
board.cache_hierarchy.l1d-cache-0.overallAccesses::total   3971246376                       # number of overall (read+write) accesses (Count)
board.cache_hierarchy.l1d-cache-0.demandMissRate::processor.cores0.core.data     0.000695                       # miss rate for demand accesses (Ratio)
board.cache_hierarchy.l1d-cache-0.demandMissRate::total     0.000695                       # miss rate for demand accesses (Ratio)
board.cache_hierarchy.l1d-cache-0.overallMissRate::processor.cores0.core.data     0.000695                       # miss rate for overall accesses (Ratio)
board.cache_hierarchy.l1d-cache-0.overallMissRate::total     0.000695                       # miss rate for overall accesses (Ratio)
board.cache_hierarchy.l1d-cache-0.demandAvgMissLatency::processor.cores0.core.data 43003.211837                       # average overall miss latency in ticks ((Tick/Count))
board.cache_hierarchy.l1d-cache-0.demandAvgMissLatency::total 43003.211837                       # average overall miss latency in ticks ((Tick/Count))
board.cache_hierarchy.l1d-cache-0.overallAvgMissLatency::processor.cores0.core.data 43003.211837                       # average overall miss latency ((Tick/Count))
board.cache_hierarchy.l1d-cache-0.overallAvgMissLatency::total 43003.211837                       # average overall miss latency ((Tick/Count))
board.cache_hierarchy.l1d-cache-0.blockedCycles::no_mshrs            0                       # number of cycles access was blocked (Cycle)
board.cache_hierarchy.l1d-cache-0.blockedCycles::no_wbuffers            0                       # number of cycles access was blocked (Cycle)
board.cache_hierarchy.l1d-cache-0.blockedCycles::no_targets            0                       # number of cycles access was blocked (Cycle)
board.cache_hierarchy.l1d-cache-0.blockedCauses::no_mshrs            0                       # number of times access was blocked (Count)
board.cache_hierarchy.l1d-cache-0.blockedCauses::no_wbuffers            0                       # number of times access was blocked (Count)
board.cache_hierarchy.l1d-cache-0.blockedCauses::no_targets            0                       # number of times access was blocked (Count)
board.cache_hierarchy.l1d-cache-0.avgBlocked::no_mshrs          nan                       # average number of cycles each access was blocked ((Cycle/Count))
board.cache_hierarchy.l1d-cache-0.avgBlocked::no_wbuffers          nan                       # average number of cycles each access was blocked ((Cycle/Count))
board.cache_hierarchy.l1d-cache-0.avgBlocked::no_targets          nan                       # average number of cycles each access was blocked ((Cycle/Count))
board.cache_hierarchy.l1d-cache-0.writebacks::writebacks       590075                       # number of writebacks (Count)
board.cache_hierarchy.l1d-cache-0.writebacks::total       590075                       # number of writebacks (Count)
board.cache_hierarchy.l1d-cache-0.demandMshrHits::processor.cores0.core.data        10187                       # number of demand (read+write) MSHR hits (Count)
board.cache_hierarchy.l1d-cache-0.demandMshrHits::total        10187                       # number of demand (read+write) MSHR hits (Count)
board.cache_hierarchy.l1d-cache-0.overallMshrHits::processor.cores0.core.data        10187                       # number of overall MSHR hits (Count)
board.cache_hierarchy.l1d-cache-0.overallMshrHits::total        10187                       # number of overall MSHR hits (Count)
board.cache_hierarchy.l1d-cache-0.demandMshrMisses::processor.cores0.core.data      2747860                       # number of demand (read+write) MSHR misses (Count)
board.cache_hierarchy.l1d-cache-0.demandMshrMisses::total      2747860                       # number of demand (read+write) MSHR misses (Count)
board.cache_hierarchy.l1d-cache-0.overallMshrMisses::cache_hierarchy.l1d-cache-0.prefetcher    164101939                       # number of overall MSHR misses (Count)
board.cache_hierarchy.l1d-cache-0.overallMshrMisses::processor.cores0.core.data      2747860                       # number of overall MSHR misses (Count)
board.cache_hierarchy.l1d-cache-0.overallMshrMisses::total    166849799                       # number of overall MSHR misses (Count)
board.cache_hierarchy.l1d-cache-0.demandMshrMissLatency::processor.cores0.core.data 117668893320                       # number of demand (read+write) MSHR miss ticks (Tick)
board.cache_hierarchy.l1d-cache-0.demandMshrMissLatency::total 117668893320                       # number of demand (read+write) MSHR miss ticks (Tick)
board.cache_hierarchy.l1d-cache-0.overallMshrMissLatency::cache_hierarchy.l1d-cache-0.prefetcher 1206003303576                       # number of overall MSHR miss ticks (Tick)
board.cache_hierarchy.l1d-cache-0.overallMshrMissLatency::processor.cores0.core.data 117668893320                       # number of overall MSHR miss ticks (Tick)
board.cache_hierarchy.l1d-cache-0.overallMshrMissLatency::total 1323672196896                       # number of overall MSHR miss ticks (Tick)
board.cache_hierarchy.l1d-cache-0.demandMshrMissRate::processor.cores0.core.data     0.000692                       # mshr miss ratio for demand accesses (Ratio)
board.cache_hierarchy.l1d-cache-0.demandMshrMissRate::total     0.000692                       # mshr miss ratio for demand accesses (Ratio)
board.cache_hierarchy.l1d-cache-0.overallMshrMissRate::cache_hierarchy.l1d-cache-0.prefetcher          inf                       # mshr miss ratio for overall accesses (Ratio)
board.cache_hierarchy.l1d-cache-0.overallMshrMissRate::processor.cores0.core.data     0.000692                       # mshr miss ratio for overall accesses (Ratio)
board.cache_hierarchy.l1d-cache-0.overallMshrMissRate::total     0.042014                       # mshr miss ratio for overall accesses (Ratio)
board.cache_hierarchy.l1d-cache-0.demandAvgMshrMissLatency::processor.cores0.core.data 42822.011791                       # average overall mshr miss latency ((Tick/Count))
board.cache_hierarchy.l1d-cache-0.demandAvgMshrMissLatency::total 42822.011791                       # average overall mshr miss latency ((Tick/Count))
board.cache_hierarchy.l1d-cache-0.overallAvgMshrMissLatency::cache_hierarchy.l1d-cache-0.prefetcher  7349.110626                       # average overall mshr miss latency ((Tick/Count))
board.cache_hierarchy.l1d-cache-0.overallAvgMshrMissLatency::processor.cores0.core.data 42822.011791                       # average overall mshr miss latency ((Tick/Count))
board.cache_hierarchy.l1d-cache-0.overallAvgMshrMissLatency::total  7933.316101                       # average overall mshr miss latency ((Tick/Count))
board.cache_hierarchy.l1d-cache-0.replacements    166849289                       # number of replacements (Count)
board.cache_hierarchy.l1d-cache-0.HardPFReq.mshrMisses::cache_hierarchy.l1d-cache-0.prefetcher    164101939                       # number of HardPFReq MSHR misses (Count)
board.cache_hierarchy.l1d-cache-0.HardPFReq.mshrMisses::total    164101939                       # number of HardPFReq MSHR misses (Count)
board.cache_hierarchy.l1d-cache-0.HardPFReq.mshrMissLatency::cache_hierarchy.l1d-cache-0.prefetcher 1206003303576                       # number of HardPFReq MSHR miss ticks (Tick)
board.cache_hierarchy.l1d-cache-0.HardPFReq.mshrMissLatency::total 1206003303576                       # number of HardPFReq MSHR miss ticks (Tick)
board.cache_hierarchy.l1d-cache-0.HardPFReq.mshrMissRate::cache_hierarchy.l1d-cache-0.prefetcher          inf                       # mshr miss rate for HardPFReq accesses (Ratio)
board.cache_hierarchy.l1d-cache-0.HardPFReq.mshrMissRate::total          inf                       # mshr miss rate for HardPFReq accesses (Ratio)
board.cache_hierarchy.l1d-cache-0.HardPFReq.avgMshrMissLatency::cache_hierarchy.l1d-cache-0.prefetcher  7349.110626                       # average HardPFReq mshr miss latency ((Tick/Count))
board.cache_hierarchy.l1d-cache-0.HardPFReq.avgMshrMissLatency::total  7349.110626                       # average HardPFReq mshr miss latency ((Tick/Count))
board.cache_hierarchy.l1d-cache-0.LockedRMWReadReq.hits::processor.cores0.core.data           29                       # number of LockedRMWReadReq hits (Count)
board.cache_hierarchy.l1d-cache-0.LockedRMWReadReq.hits::total           29                       # number of LockedRMWReadReq hits (Count)
board.cache_hierarchy.l1d-cache-0.LockedRMWReadReq.misses::processor.cores0.core.data            2                       # number of LockedRMWReadReq misses (Count)
board.cache_hierarchy.l1d-cache-0.LockedRMWReadReq.misses::total            2                       # number of LockedRMWReadReq misses (Count)
board.cache_hierarchy.l1d-cache-0.LockedRMWReadReq.missLatency::processor.cores0.core.data        77256                       # number of LockedRMWReadReq miss ticks (Tick)
board.cache_hierarchy.l1d-cache-0.LockedRMWReadReq.missLatency::total        77256                       # number of LockedRMWReadReq miss ticks (Tick)
board.cache_hierarchy.l1d-cache-0.LockedRMWReadReq.accesses::processor.cores0.core.data           31                       # number of LockedRMWReadReq accesses(hits+misses) (Count)
board.cache_hierarchy.l1d-cache-0.LockedRMWReadReq.accesses::total           31                       # number of LockedRMWReadReq accesses(hits+misses) (Count)
board.cache_hierarchy.l1d-cache-0.LockedRMWReadReq.missRate::processor.cores0.core.data     0.064516                       # miss rate for LockedRMWReadReq accesses (Ratio)
board.cache_hierarchy.l1d-cache-0.LockedRMWReadReq.missRate::total     0.064516                       # miss rate for LockedRMWReadReq accesses (Ratio)
board.cache_hierarchy.l1d-cache-0.LockedRMWReadReq.avgMissLatency::processor.cores0.core.data        38628                       # average LockedRMWReadReq miss latency ((Tick/Count))
board.cache_hierarchy.l1d-cache-0.LockedRMWReadReq.avgMissLatency::total        38628                       # average LockedRMWReadReq miss latency ((Tick/Count))
board.cache_hierarchy.l1d-cache-0.LockedRMWReadReq.mshrMisses::processor.cores0.core.data            2                       # number of LockedRMWReadReq MSHR misses (Count)
board.cache_hierarchy.l1d-cache-0.LockedRMWReadReq.mshrMisses::total            2                       # number of LockedRMWReadReq MSHR misses (Count)
board.cache_hierarchy.l1d-cache-0.LockedRMWReadReq.mshrMissLatency::processor.cores0.core.data       163503                       # number of LockedRMWReadReq MSHR miss ticks (Tick)
board.cache_hierarchy.l1d-cache-0.LockedRMWReadReq.mshrMissLatency::total       163503                       # number of LockedRMWReadReq MSHR miss ticks (Tick)
board.cache_hierarchy.l1d-cache-0.LockedRMWReadReq.mshrMissRate::processor.cores0.core.data     0.064516                       # mshr miss rate for LockedRMWReadReq accesses (Ratio)
board.cache_hierarchy.l1d-cache-0.LockedRMWReadReq.mshrMissRate::total     0.064516                       # mshr miss rate for LockedRMWReadReq accesses (Ratio)
board.cache_hierarchy.l1d-cache-0.LockedRMWReadReq.avgMshrMissLatency::processor.cores0.core.data 81751.500000                       # average LockedRMWReadReq mshr miss latency ((Tick/Count))
board.cache_hierarchy.l1d-cache-0.LockedRMWReadReq.avgMshrMissLatency::total 81751.500000                       # average LockedRMWReadReq mshr miss latency ((Tick/Count))
board.cache_hierarchy.l1d-cache-0.LockedRMWWriteReq.hits::processor.cores0.core.data           31                       # number of LockedRMWWriteReq hits (Count)
board.cache_hierarchy.l1d-cache-0.LockedRMWWriteReq.hits::total           31                       # number of LockedRMWWriteReq hits (Count)
board.cache_hierarchy.l1d-cache-0.LockedRMWWriteReq.accesses::processor.cores0.core.data           31                       # number of LockedRMWWriteReq accesses(hits+misses) (Count)
board.cache_hierarchy.l1d-cache-0.LockedRMWWriteReq.accesses::total           31                       # number of LockedRMWWriteReq accesses(hits+misses) (Count)
board.cache_hierarchy.l1d-cache-0.ReadReq.hits::processor.cores0.core.data   2643764228                       # number of ReadReq hits (Count)
board.cache_hierarchy.l1d-cache-0.ReadReq.hits::total   2643764228                       # number of ReadReq hits (Count)
board.cache_hierarchy.l1d-cache-0.ReadReq.misses::processor.cores0.core.data      2750810                       # number of ReadReq misses (Count)
board.cache_hierarchy.l1d-cache-0.ReadReq.misses::total      2750810                       # number of ReadReq misses (Count)
board.cache_hierarchy.l1d-cache-0.ReadReq.missLatency::processor.cores0.core.data 118279074195                       # number of ReadReq miss ticks (Tick)
board.cache_hierarchy.l1d-cache-0.ReadReq.missLatency::total 118279074195                       # number of ReadReq miss ticks (Tick)
board.cache_hierarchy.l1d-cache-0.ReadReq.accesses::processor.cores0.core.data   2646515038                       # number of ReadReq accesses(hits+misses) (Count)
board.cache_hierarchy.l1d-cache-0.ReadReq.accesses::total   2646515038                       # number of ReadReq accesses(hits+misses) (Count)
board.cache_hierarchy.l1d-cache-0.ReadReq.missRate::processor.cores0.core.data     0.001039                       # miss rate for ReadReq accesses (Ratio)
board.cache_hierarchy.l1d-cache-0.ReadReq.missRate::total     0.001039                       # miss rate for ReadReq accesses (Ratio)
board.cache_hierarchy.l1d-cache-0.ReadReq.avgMissLatency::processor.cores0.core.data 42997.907596                       # average ReadReq miss latency ((Tick/Count))
board.cache_hierarchy.l1d-cache-0.ReadReq.avgMissLatency::total 42997.907596                       # average ReadReq miss latency ((Tick/Count))
board.cache_hierarchy.l1d-cache-0.ReadReq.mshrHits::processor.cores0.core.data        10171                       # number of ReadReq MSHR hits (Count)
board.cache_hierarchy.l1d-cache-0.ReadReq.mshrHits::total        10171                       # number of ReadReq MSHR hits (Count)
board.cache_hierarchy.l1d-cache-0.ReadReq.mshrMisses::processor.cores0.core.data      2740639                       # number of ReadReq MSHR misses (Count)
board.cache_hierarchy.l1d-cache-0.ReadReq.mshrMisses::total      2740639                       # number of ReadReq MSHR misses (Count)
board.cache_hierarchy.l1d-cache-0.ReadReq.mshrMissLatency::processor.cores0.core.data 117345574629                       # number of ReadReq MSHR miss ticks (Tick)
board.cache_hierarchy.l1d-cache-0.ReadReq.mshrMissLatency::total 117345574629                       # number of ReadReq MSHR miss ticks (Tick)
board.cache_hierarchy.l1d-cache-0.ReadReq.mshrMissRate::processor.cores0.core.data     0.001036                       # mshr miss rate for ReadReq accesses (Ratio)
board.cache_hierarchy.l1d-cache-0.ReadReq.mshrMissRate::total     0.001036                       # mshr miss rate for ReadReq accesses (Ratio)
board.cache_hierarchy.l1d-cache-0.ReadReq.avgMshrMissLatency::processor.cores0.core.data 42816.866661                       # average ReadReq mshr miss latency ((Tick/Count))
board.cache_hierarchy.l1d-cache-0.ReadReq.avgMshrMissLatency::total 42816.866661                       # average ReadReq mshr miss latency ((Tick/Count))
board.cache_hierarchy.l1d-cache-0.WriteReq.hits::processor.cores0.core.data   1324724101                       # number of WriteReq hits (Count)
board.cache_hierarchy.l1d-cache-0.WriteReq.hits::total   1324724101                       # number of WriteReq hits (Count)
board.cache_hierarchy.l1d-cache-0.WriteReq.misses::processor.cores0.core.data         7237                       # number of WriteReq misses (Count)
board.cache_hierarchy.l1d-cache-0.WriteReq.misses::total         7237                       # number of WriteReq misses (Count)
board.cache_hierarchy.l1d-cache-0.WriteReq.missLatency::processor.cores0.core.data    325805202                       # number of WriteReq miss ticks (Tick)
board.cache_hierarchy.l1d-cache-0.WriteReq.missLatency::total    325805202                       # number of WriteReq miss ticks (Tick)
board.cache_hierarchy.l1d-cache-0.WriteReq.accesses::processor.cores0.core.data   1324731338                       # number of WriteReq accesses(hits+misses) (Count)
board.cache_hierarchy.l1d-cache-0.WriteReq.accesses::total   1324731338                       # number of WriteReq accesses(hits+misses) (Count)
board.cache_hierarchy.l1d-cache-0.WriteReq.missRate::processor.cores0.core.data     0.000005                       # miss rate for WriteReq accesses (Ratio)
board.cache_hierarchy.l1d-cache-0.WriteReq.missRate::total     0.000005                       # miss rate for WriteReq accesses (Ratio)
board.cache_hierarchy.l1d-cache-0.WriteReq.avgMissLatency::processor.cores0.core.data 45019.372945                       # average WriteReq miss latency ((Tick/Count))
board.cache_hierarchy.l1d-cache-0.WriteReq.avgMissLatency::total 45019.372945                       # average WriteReq miss latency ((Tick/Count))
board.cache_hierarchy.l1d-cache-0.WriteReq.mshrHits::processor.cores0.core.data           16                       # number of WriteReq MSHR hits (Count)
board.cache_hierarchy.l1d-cache-0.WriteReq.mshrHits::total           16                       # number of WriteReq MSHR hits (Count)
board.cache_hierarchy.l1d-cache-0.WriteReq.mshrMisses::processor.cores0.core.data         7221                       # number of WriteReq MSHR misses (Count)
board.cache_hierarchy.l1d-cache-0.WriteReq.mshrMisses::total         7221                       # number of WriteReq MSHR misses (Count)
board.cache_hierarchy.l1d-cache-0.WriteReq.mshrMissLatency::processor.cores0.core.data    323318691                       # number of WriteReq MSHR miss ticks (Tick)
board.cache_hierarchy.l1d-cache-0.WriteReq.mshrMissLatency::total    323318691                       # number of WriteReq MSHR miss ticks (Tick)
board.cache_hierarchy.l1d-cache-0.WriteReq.mshrMissRate::processor.cores0.core.data     0.000005                       # mshr miss rate for WriteReq accesses (Ratio)
board.cache_hierarchy.l1d-cache-0.WriteReq.mshrMissRate::total     0.000005                       # mshr miss rate for WriteReq accesses (Ratio)
board.cache_hierarchy.l1d-cache-0.WriteReq.avgMshrMissLatency::processor.cores0.core.data 44774.780640                       # average WriteReq mshr miss latency ((Tick/Count))
board.cache_hierarchy.l1d-cache-0.WriteReq.avgMshrMissLatency::total 44774.780640                       # average WriteReq mshr miss latency ((Tick/Count))
board.cache_hierarchy.l1d-cache-0.power_state.pwrStateResidencyTicks::UNDEFINED 3898253719458                       # Cumulative time (in ticks) in various power states (Tick)
board.cache_hierarchy.l1d-cache-0.prefetcher.demandMshrMisses      2747860                       # demands not covered by prefetchs (Count)
board.cache_hierarchy.l1d-cache-0.prefetcher.pfIssued    639081451                       # number of hwpf issued (Count)
board.cache_hierarchy.l1d-cache-0.prefetcher.pfUnused       584432                       # number of HardPF blocks evicted w/o reference (Count)
board.cache_hierarchy.l1d-cache-0.prefetcher.pfUseful    163507316                       # number of useful prefetch (Count)
board.cache_hierarchy.l1d-cache-0.prefetcher.pfUsefulButMiss            0                       # number of hit on prefetch but cache block is not in an usable state (Count)
board.cache_hierarchy.l1d-cache-0.prefetcher.accuracy     0.255847                       # accuracy of the prefetcher (Count)
board.cache_hierarchy.l1d-cache-0.prefetcher.coverage     0.983472                       # coverage brought by this prefetcher (Count)
board.cache_hierarchy.l1d-cache-0.prefetcher.pfHitInCache    474502209                       # number of prefetches hitting in cache (Count)
board.cache_hierarchy.l1d-cache-0.prefetcher.pfHitInMSHR       477303                       # number of prefetches hitting in a MSHR (Count)
board.cache_hierarchy.l1d-cache-0.prefetcher.pfHitInWB            0                       # number of prefetches hit in the Write Buffer (Count)
board.cache_hierarchy.l1d-cache-0.prefetcher.pfLate    474979512                       # number of late prefetches (hitting in cache, MSHR or WB) (Count)
board.cache_hierarchy.l1d-cache-0.prefetcher.pfIdentified    639081456                       # number of prefetch candidates identified (Count)
board.cache_hierarchy.l1d-cache-0.prefetcher.pfBufferHit            3                       # number of redundant prefetches already in prefetch queue (Count)
board.cache_hierarchy.l1d-cache-0.prefetcher.pfInCache            0                       # number of redundant prefetches already in cache/mshr dropped (Count)
board.cache_hierarchy.l1d-cache-0.prefetcher.pfRemovedDemand            1                       # number of prefetches dropped due to a demand for the same address (Count)
board.cache_hierarchy.l1d-cache-0.prefetcher.pfRemovedFull            0                       # number of prefetches dropped due to prefetch queue size (Count)
board.cache_hierarchy.l1d-cache-0.prefetcher.pfSpanPage     25977604                       # number of prefetches that crossed the page (Count)
board.cache_hierarchy.l1d-cache-0.prefetcher.pfUsefulSpanPage     25953682                       # number of prefetches that is useful and crossed the page (Count)
board.cache_hierarchy.l1d-cache-0.prefetcher.power_state.pwrStateResidencyTicks::UNDEFINED 3898253719458                       # Cumulative time (in ticks) in various power states (Tick)
board.cache_hierarchy.l1d-cache-0.tags.tagsInUse   511.996427                       # Average ticks per tags in use ((Tick/Count))
board.cache_hierarchy.l1d-cache-0.tags.totalRefs   4135338190                       # Total number of references to valid blocks. (Count)
board.cache_hierarchy.l1d-cache-0.tags.sampledRefs    166849801                       # Sample count of references to valid blocks. (Count)
board.cache_hierarchy.l1d-cache-0.tags.avgRefs    24.784795                       # Average number of references to valid blocks. ((Count/Count))
board.cache_hierarchy.l1d-cache-0.tags.warmupTick        83916                       # The tick when the warmup percentage was hit. (Tick)
board.cache_hierarchy.l1d-cache-0.tags.occupancies::cache_hierarchy.l1d-cache-0.prefetcher   501.859554                       # Average occupied blocks per tick, per requestor ((Count/Tick))
board.cache_hierarchy.l1d-cache-0.tags.occupancies::processor.cores0.core.data    10.136873                       # Average occupied blocks per tick, per requestor ((Count/Tick))
board.cache_hierarchy.l1d-cache-0.tags.avgOccs::cache_hierarchy.l1d-cache-0.prefetcher     0.980194                       # Average percentage of cache occupancy ((Ratio/Tick))
board.cache_hierarchy.l1d-cache-0.tags.avgOccs::processor.cores0.core.data     0.019799                       # Average percentage of cache occupancy ((Ratio/Tick))
board.cache_hierarchy.l1d-cache-0.tags.avgOccs::total     0.999993                       # Average percentage of cache occupancy ((Ratio/Tick))
board.cache_hierarchy.l1d-cache-0.tags.occupanciesTaskId::1022          420                       # Occupied blocks per task id (Count)
board.cache_hierarchy.l1d-cache-0.tags.occupanciesTaskId::1024           92                       # Occupied blocks per task id (Count)
board.cache_hierarchy.l1d-cache-0.tags.ageTaskId_1022::1          285                       # Occupied blocks per task id, per block age (Count)
board.cache_hierarchy.l1d-cache-0.tags.ageTaskId_1022::3          135                       # Occupied blocks per task id, per block age (Count)
board.cache_hierarchy.l1d-cache-0.tags.ageTaskId_1024::0           30                       # Occupied blocks per task id, per block age (Count)
board.cache_hierarchy.l1d-cache-0.tags.ageTaskId_1024::1           59                       # Occupied blocks per task id, per block age (Count)
board.cache_hierarchy.l1d-cache-0.tags.ageTaskId_1024::3            3                       # Occupied blocks per task id, per block age (Count)
board.cache_hierarchy.l1d-cache-0.tags.ratioOccsTaskId::1022     0.820312                       # Ratio of occupied blocks and all blocks, per task id (Ratio)
board.cache_hierarchy.l1d-cache-0.tags.ratioOccsTaskId::1024     0.179688                       # Ratio of occupied blocks and all blocks, per task id (Ratio)
board.cache_hierarchy.l1d-cache-0.tags.tagAccesses  31936821305                       # Number of tag accesses (Count)
board.cache_hierarchy.l1d-cache-0.tags.dataAccesses  31936821305                       # Number of data accesses (Count)
board.cache_hierarchy.l1d-cache-0.tags.power_state.pwrStateResidencyTicks::UNDEFINED 3898253719458                       # Cumulative time (in ticks) in various power states (Tick)
board.cache_hierarchy.l1d-cache-1.demandHits::processor.cores1.core.data   3968496888                       # number of demand (read+write) hits (Count)
board.cache_hierarchy.l1d-cache-1.demandHits::total   3968496888                       # number of demand (read+write) hits (Count)
board.cache_hierarchy.l1d-cache-1.overallHits::processor.cores1.core.data   3968496888                       # number of overall hits (Count)
board.cache_hierarchy.l1d-cache-1.overallHits::total   3968496888                       # number of overall hits (Count)
board.cache_hierarchy.l1d-cache-1.demandMisses::processor.cores1.core.data      2749914                       # number of demand (read+write) misses (Count)
board.cache_hierarchy.l1d-cache-1.demandMisses::total      2749914                       # number of demand (read+write) misses (Count)
board.cache_hierarchy.l1d-cache-1.overallMisses::processor.cores1.core.data      2749914                       # number of overall misses (Count)
board.cache_hierarchy.l1d-cache-1.overallMisses::total      2749914                       # number of overall misses (Count)
board.cache_hierarchy.l1d-cache-1.demandMissLatency::processor.cores1.core.data 118602836109                       # number of demand (read+write) miss ticks (Tick)
board.cache_hierarchy.l1d-cache-1.demandMissLatency::total 118602836109                       # number of demand (read+write) miss ticks (Tick)
board.cache_hierarchy.l1d-cache-1.overallMissLatency::processor.cores1.core.data 118602836109                       # number of overall miss ticks (Tick)
board.cache_hierarchy.l1d-cache-1.overallMissLatency::total 118602836109                       # number of overall miss ticks (Tick)
board.cache_hierarchy.l1d-cache-1.demandAccesses::processor.cores1.core.data   3971246802                       # number of demand (read+write) accesses (Count)
board.cache_hierarchy.l1d-cache-1.demandAccesses::total   3971246802                       # number of demand (read+write) accesses (Count)
board.cache_hierarchy.l1d-cache-1.overallAccesses::processor.cores1.core.data   3971246802                       # number of overall (read+write) accesses (Count)
board.cache_hierarchy.l1d-cache-1.overallAccesses::total   3971246802                       # number of overall (read+write) accesses (Count)
board.cache_hierarchy.l1d-cache-1.demandMissRate::processor.cores1.core.data     0.000692                       # miss rate for demand accesses (Ratio)
board.cache_hierarchy.l1d-cache-1.demandMissRate::total     0.000692                       # miss rate for demand accesses (Ratio)
board.cache_hierarchy.l1d-cache-1.overallMissRate::processor.cores1.core.data     0.000692                       # miss rate for overall accesses (Ratio)
board.cache_hierarchy.l1d-cache-1.overallMissRate::total     0.000692                       # miss rate for overall accesses (Ratio)
board.cache_hierarchy.l1d-cache-1.demandAvgMissLatency::processor.cores1.core.data 43129.652822                       # average overall miss latency in ticks ((Tick/Count))
board.cache_hierarchy.l1d-cache-1.demandAvgMissLatency::total 43129.652822                       # average overall miss latency in ticks ((Tick/Count))
board.cache_hierarchy.l1d-cache-1.overallAvgMissLatency::processor.cores1.core.data 43129.652822                       # average overall miss latency ((Tick/Count))
board.cache_hierarchy.l1d-cache-1.overallAvgMissLatency::total 43129.652822                       # average overall miss latency ((Tick/Count))
board.cache_hierarchy.l1d-cache-1.blockedCycles::no_mshrs            0                       # number of cycles access was blocked (Cycle)
board.cache_hierarchy.l1d-cache-1.blockedCycles::no_wbuffers            0                       # number of cycles access was blocked (Cycle)
board.cache_hierarchy.l1d-cache-1.blockedCycles::no_targets            0                       # number of cycles access was blocked (Cycle)
board.cache_hierarchy.l1d-cache-1.blockedCauses::no_mshrs            0                       # number of times access was blocked (Count)
board.cache_hierarchy.l1d-cache-1.blockedCauses::no_wbuffers            0                       # number of times access was blocked (Count)
board.cache_hierarchy.l1d-cache-1.blockedCauses::no_targets            0                       # number of times access was blocked (Count)
board.cache_hierarchy.l1d-cache-1.avgBlocked::no_mshrs          nan                       # average number of cycles each access was blocked ((Cycle/Count))
board.cache_hierarchy.l1d-cache-1.avgBlocked::no_wbuffers          nan                       # average number of cycles each access was blocked ((Cycle/Count))
board.cache_hierarchy.l1d-cache-1.avgBlocked::no_targets          nan                       # average number of cycles each access was blocked ((Cycle/Count))
board.cache_hierarchy.l1d-cache-1.writebacks::writebacks       590076                       # number of writebacks (Count)
board.cache_hierarchy.l1d-cache-1.writebacks::total       590076                       # number of writebacks (Count)
board.cache_hierarchy.l1d-cache-1.demandMshrHits::processor.cores1.core.data         2028                       # number of demand (read+write) MSHR hits (Count)
board.cache_hierarchy.l1d-cache-1.demandMshrHits::total         2028                       # number of demand (read+write) MSHR hits (Count)
board.cache_hierarchy.l1d-cache-1.overallMshrHits::processor.cores1.core.data         2028                       # number of overall MSHR hits (Count)
board.cache_hierarchy.l1d-cache-1.overallMshrHits::total         2028                       # number of overall MSHR hits (Count)
board.cache_hierarchy.l1d-cache-1.demandMshrMisses::processor.cores1.core.data      2747886                       # number of demand (read+write) MSHR misses (Count)
board.cache_hierarchy.l1d-cache-1.demandMshrMisses::total      2747886                       # number of demand (read+write) MSHR misses (Count)
board.cache_hierarchy.l1d-cache-1.overallMshrMisses::cache_hierarchy.l1d-cache-1.prefetcher    164101939                       # number of overall MSHR misses (Count)
board.cache_hierarchy.l1d-cache-1.overallMshrMisses::processor.cores1.core.data      2747886                       # number of overall MSHR misses (Count)
board.cache_hierarchy.l1d-cache-1.overallMshrMisses::total    166849825                       # number of overall MSHR misses (Count)
board.cache_hierarchy.l1d-cache-1.demandMshrMissLatency::processor.cores1.core.data 117669566313                       # number of demand (read+write) MSHR miss ticks (Tick)
board.cache_hierarchy.l1d-cache-1.demandMshrMissLatency::total 117669566313                       # number of demand (read+write) MSHR miss ticks (Tick)
board.cache_hierarchy.l1d-cache-1.overallMshrMissLatency::cache_hierarchy.l1d-cache-1.prefetcher 1183989189393                       # number of overall MSHR miss ticks (Tick)
board.cache_hierarchy.l1d-cache-1.overallMshrMissLatency::processor.cores1.core.data 117669566313                       # number of overall MSHR miss ticks (Tick)
board.cache_hierarchy.l1d-cache-1.overallMshrMissLatency::total 1301658755706                       # number of overall MSHR miss ticks (Tick)
board.cache_hierarchy.l1d-cache-1.demandMshrMissRate::processor.cores1.core.data     0.000692                       # mshr miss ratio for demand accesses (Ratio)
board.cache_hierarchy.l1d-cache-1.demandMshrMissRate::total     0.000692                       # mshr miss ratio for demand accesses (Ratio)
board.cache_hierarchy.l1d-cache-1.overallMshrMissRate::cache_hierarchy.l1d-cache-1.prefetcher          inf                       # mshr miss ratio for overall accesses (Ratio)
board.cache_hierarchy.l1d-cache-1.overallMshrMissRate::processor.cores1.core.data     0.000692                       # mshr miss ratio for overall accesses (Ratio)
board.cache_hierarchy.l1d-cache-1.overallMshrMissRate::total     0.042014                       # mshr miss ratio for overall accesses (Ratio)
board.cache_hierarchy.l1d-cache-1.demandAvgMshrMissLatency::processor.cores1.core.data 42821.851530                       # average overall mshr miss latency ((Tick/Count))
board.cache_hierarchy.l1d-cache-1.demandAvgMshrMissLatency::total 42821.851530                       # average overall mshr miss latency ((Tick/Count))
board.cache_hierarchy.l1d-cache-1.overallAvgMshrMissLatency::cache_hierarchy.l1d-cache-1.prefetcher  7214.961606                       # average overall mshr miss latency ((Tick/Count))
board.cache_hierarchy.l1d-cache-1.overallAvgMshrMissLatency::processor.cores1.core.data 42821.851530                       # average overall mshr miss latency ((Tick/Count))
board.cache_hierarchy.l1d-cache-1.overallAvgMshrMissLatency::total  7801.379209                       # average overall mshr miss latency ((Tick/Count))
board.cache_hierarchy.l1d-cache-1.replacements    166849317                       # number of replacements (Count)
board.cache_hierarchy.l1d-cache-1.HardPFReq.mshrMisses::cache_hierarchy.l1d-cache-1.prefetcher    164101939                       # number of HardPFReq MSHR misses (Count)
board.cache_hierarchy.l1d-cache-1.HardPFReq.mshrMisses::total    164101939                       # number of HardPFReq MSHR misses (Count)
board.cache_hierarchy.l1d-cache-1.HardPFReq.mshrMissLatency::cache_hierarchy.l1d-cache-1.prefetcher 1183989189393                       # number of HardPFReq MSHR miss ticks (Tick)
board.cache_hierarchy.l1d-cache-1.HardPFReq.mshrMissLatency::total 1183989189393                       # number of HardPFReq MSHR miss ticks (Tick)
board.cache_hierarchy.l1d-cache-1.HardPFReq.mshrMissRate::cache_hierarchy.l1d-cache-1.prefetcher          inf                       # mshr miss rate for HardPFReq accesses (Ratio)
board.cache_hierarchy.l1d-cache-1.HardPFReq.mshrMissRate::total          inf                       # mshr miss rate for HardPFReq accesses (Ratio)
board.cache_hierarchy.l1d-cache-1.HardPFReq.avgMshrMissLatency::cache_hierarchy.l1d-cache-1.prefetcher  7214.961606                       # average HardPFReq mshr miss latency ((Tick/Count))
board.cache_hierarchy.l1d-cache-1.HardPFReq.avgMshrMissLatency::total  7214.961606                       # average HardPFReq mshr miss latency ((Tick/Count))
board.cache_hierarchy.l1d-cache-1.LockedRMWReadReq.hits::processor.cores1.core.data           44                       # number of LockedRMWReadReq hits (Count)
board.cache_hierarchy.l1d-cache-1.LockedRMWReadReq.hits::total           44                       # number of LockedRMWReadReq hits (Count)
board.cache_hierarchy.l1d-cache-1.LockedRMWReadReq.misses::processor.cores1.core.data            4                       # number of LockedRMWReadReq misses (Count)
board.cache_hierarchy.l1d-cache-1.LockedRMWReadReq.misses::total            4                       # number of LockedRMWReadReq misses (Count)
board.cache_hierarchy.l1d-cache-1.LockedRMWReadReq.missLatency::processor.cores1.core.data        86580                       # number of LockedRMWReadReq miss ticks (Tick)
board.cache_hierarchy.l1d-cache-1.LockedRMWReadReq.missLatency::total        86580                       # number of LockedRMWReadReq miss ticks (Tick)
board.cache_hierarchy.l1d-cache-1.LockedRMWReadReq.accesses::processor.cores1.core.data           48                       # number of LockedRMWReadReq accesses(hits+misses) (Count)
board.cache_hierarchy.l1d-cache-1.LockedRMWReadReq.accesses::total           48                       # number of LockedRMWReadReq accesses(hits+misses) (Count)
board.cache_hierarchy.l1d-cache-1.LockedRMWReadReq.missRate::processor.cores1.core.data     0.083333                       # miss rate for LockedRMWReadReq accesses (Ratio)
board.cache_hierarchy.l1d-cache-1.LockedRMWReadReq.missRate::total     0.083333                       # miss rate for LockedRMWReadReq accesses (Ratio)
board.cache_hierarchy.l1d-cache-1.LockedRMWReadReq.avgMissLatency::processor.cores1.core.data        21645                       # average LockedRMWReadReq miss latency ((Tick/Count))
board.cache_hierarchy.l1d-cache-1.LockedRMWReadReq.avgMissLatency::total        21645                       # average LockedRMWReadReq miss latency ((Tick/Count))
board.cache_hierarchy.l1d-cache-1.LockedRMWReadReq.mshrMisses::processor.cores1.core.data            4                       # number of LockedRMWReadReq MSHR misses (Count)
board.cache_hierarchy.l1d-cache-1.LockedRMWReadReq.mshrMisses::total            4                       # number of LockedRMWReadReq MSHR misses (Count)
board.cache_hierarchy.l1d-cache-1.LockedRMWReadReq.mshrMissLatency::processor.cores1.core.data       186480                       # number of LockedRMWReadReq MSHR miss ticks (Tick)
board.cache_hierarchy.l1d-cache-1.LockedRMWReadReq.mshrMissLatency::total       186480                       # number of LockedRMWReadReq MSHR miss ticks (Tick)
board.cache_hierarchy.l1d-cache-1.LockedRMWReadReq.mshrMissRate::processor.cores1.core.data     0.083333                       # mshr miss rate for LockedRMWReadReq accesses (Ratio)
board.cache_hierarchy.l1d-cache-1.LockedRMWReadReq.mshrMissRate::total     0.083333                       # mshr miss rate for LockedRMWReadReq accesses (Ratio)
board.cache_hierarchy.l1d-cache-1.LockedRMWReadReq.avgMshrMissLatency::processor.cores1.core.data        46620                       # average LockedRMWReadReq mshr miss latency ((Tick/Count))
board.cache_hierarchy.l1d-cache-1.LockedRMWReadReq.avgMshrMissLatency::total        46620                       # average LockedRMWReadReq mshr miss latency ((Tick/Count))
board.cache_hierarchy.l1d-cache-1.LockedRMWWriteReq.hits::processor.cores1.core.data           48                       # number of LockedRMWWriteReq hits (Count)
board.cache_hierarchy.l1d-cache-1.LockedRMWWriteReq.hits::total           48                       # number of LockedRMWWriteReq hits (Count)
board.cache_hierarchy.l1d-cache-1.LockedRMWWriteReq.accesses::processor.cores1.core.data           48                       # number of LockedRMWWriteReq accesses(hits+misses) (Count)
board.cache_hierarchy.l1d-cache-1.LockedRMWWriteReq.accesses::total           48                       # number of LockedRMWWriteReq accesses(hits+misses) (Count)
board.cache_hierarchy.l1d-cache-1.ReadReq.hits::processor.cores1.core.data   2643772610                       # number of ReadReq hits (Count)
board.cache_hierarchy.l1d-cache-1.ReadReq.hits::total   2643772610                       # number of ReadReq hits (Count)
board.cache_hierarchy.l1d-cache-1.ReadReq.misses::processor.cores1.core.data      2742684                       # number of ReadReq misses (Count)
board.cache_hierarchy.l1d-cache-1.ReadReq.misses::total      2742684                       # number of ReadReq misses (Count)
board.cache_hierarchy.l1d-cache-1.ReadReq.missLatency::processor.cores1.core.data 118277087517                       # number of ReadReq miss ticks (Tick)
board.cache_hierarchy.l1d-cache-1.ReadReq.missLatency::total 118277087517                       # number of ReadReq miss ticks (Tick)
board.cache_hierarchy.l1d-cache-1.ReadReq.accesses::processor.cores1.core.data   2646515294                       # number of ReadReq accesses(hits+misses) (Count)
board.cache_hierarchy.l1d-cache-1.ReadReq.accesses::total   2646515294                       # number of ReadReq accesses(hits+misses) (Count)
board.cache_hierarchy.l1d-cache-1.ReadReq.missRate::processor.cores1.core.data     0.001036                       # miss rate for ReadReq accesses (Ratio)
board.cache_hierarchy.l1d-cache-1.ReadReq.missRate::total     0.001036                       # miss rate for ReadReq accesses (Ratio)
board.cache_hierarchy.l1d-cache-1.ReadReq.avgMissLatency::processor.cores1.core.data 43124.577063                       # average ReadReq miss latency ((Tick/Count))
board.cache_hierarchy.l1d-cache-1.ReadReq.avgMissLatency::total 43124.577063                       # average ReadReq miss latency ((Tick/Count))
board.cache_hierarchy.l1d-cache-1.ReadReq.mshrHits::processor.cores1.core.data         2019                       # number of ReadReq MSHR hits (Count)
board.cache_hierarchy.l1d-cache-1.ReadReq.mshrHits::total         2019                       # number of ReadReq MSHR hits (Count)
board.cache_hierarchy.l1d-cache-1.ReadReq.mshrMisses::processor.cores1.core.data      2740665                       # number of ReadReq MSHR misses (Count)
board.cache_hierarchy.l1d-cache-1.ReadReq.mshrMisses::total      2740665                       # number of ReadReq MSHR misses (Count)
board.cache_hierarchy.l1d-cache-1.ReadReq.mshrMissLatency::processor.cores1.core.data 117346264272                       # number of ReadReq MSHR miss ticks (Tick)
board.cache_hierarchy.l1d-cache-1.ReadReq.mshrMissLatency::total 117346264272                       # number of ReadReq MSHR miss ticks (Tick)
board.cache_hierarchy.l1d-cache-1.ReadReq.mshrMissRate::processor.cores1.core.data     0.001036                       # mshr miss rate for ReadReq accesses (Ratio)
board.cache_hierarchy.l1d-cache-1.ReadReq.mshrMissRate::total     0.001036                       # mshr miss rate for ReadReq accesses (Ratio)
board.cache_hierarchy.l1d-cache-1.ReadReq.avgMshrMissLatency::processor.cores1.core.data 42816.712102                       # average ReadReq mshr miss latency ((Tick/Count))
board.cache_hierarchy.l1d-cache-1.ReadReq.avgMshrMissLatency::total 42816.712102                       # average ReadReq mshr miss latency ((Tick/Count))
board.cache_hierarchy.l1d-cache-1.WriteReq.hits::processor.cores1.core.data   1324724278                       # number of WriteReq hits (Count)
board.cache_hierarchy.l1d-cache-1.WriteReq.hits::total   1324724278                       # number of WriteReq hits (Count)
board.cache_hierarchy.l1d-cache-1.WriteReq.misses::processor.cores1.core.data         7230                       # number of WriteReq misses (Count)
board.cache_hierarchy.l1d-cache-1.WriteReq.misses::total         7230                       # number of WriteReq misses (Count)
board.cache_hierarchy.l1d-cache-1.WriteReq.missLatency::processor.cores1.core.data    325748592                       # number of WriteReq miss ticks (Tick)
board.cache_hierarchy.l1d-cache-1.WriteReq.missLatency::total    325748592                       # number of WriteReq miss ticks (Tick)
board.cache_hierarchy.l1d-cache-1.WriteReq.accesses::processor.cores1.core.data   1324731508                       # number of WriteReq accesses(hits+misses) (Count)
board.cache_hierarchy.l1d-cache-1.WriteReq.accesses::total   1324731508                       # number of WriteReq accesses(hits+misses) (Count)
board.cache_hierarchy.l1d-cache-1.WriteReq.missRate::processor.cores1.core.data     0.000005                       # miss rate for WriteReq accesses (Ratio)
board.cache_hierarchy.l1d-cache-1.WriteReq.missRate::total     0.000005                       # miss rate for WriteReq accesses (Ratio)
board.cache_hierarchy.l1d-cache-1.WriteReq.avgMissLatency::processor.cores1.core.data 45055.130290                       # average WriteReq miss latency ((Tick/Count))
board.cache_hierarchy.l1d-cache-1.WriteReq.avgMissLatency::total 45055.130290                       # average WriteReq miss latency ((Tick/Count))
board.cache_hierarchy.l1d-cache-1.WriteReq.mshrHits::processor.cores1.core.data            9                       # number of WriteReq MSHR hits (Count)
board.cache_hierarchy.l1d-cache-1.WriteReq.mshrHits::total            9                       # number of WriteReq MSHR hits (Count)
board.cache_hierarchy.l1d-cache-1.WriteReq.mshrMisses::processor.cores1.core.data         7221                       # number of WriteReq MSHR misses (Count)
board.cache_hierarchy.l1d-cache-1.WriteReq.mshrMisses::total         7221                       # number of WriteReq MSHR misses (Count)
board.cache_hierarchy.l1d-cache-1.WriteReq.mshrMissLatency::processor.cores1.core.data    323302041                       # number of WriteReq MSHR miss ticks (Tick)
board.cache_hierarchy.l1d-cache-1.WriteReq.mshrMissLatency::total    323302041                       # number of WriteReq MSHR miss ticks (Tick)
board.cache_hierarchy.l1d-cache-1.WriteReq.mshrMissRate::processor.cores1.core.data     0.000005                       # mshr miss rate for WriteReq accesses (Ratio)
board.cache_hierarchy.l1d-cache-1.WriteReq.mshrMissRate::total     0.000005                       # mshr miss rate for WriteReq accesses (Ratio)
board.cache_hierarchy.l1d-cache-1.WriteReq.avgMshrMissLatency::processor.cores1.core.data 44772.474865                       # average WriteReq mshr miss latency ((Tick/Count))
board.cache_hierarchy.l1d-cache-1.WriteReq.avgMshrMissLatency::total 44772.474865                       # average WriteReq mshr miss latency ((Tick/Count))
board.cache_hierarchy.l1d-cache-1.power_state.pwrStateResidencyTicks::UNDEFINED 3898253719458                       # Cumulative time (in ticks) in various power states (Tick)
board.cache_hierarchy.l1d-cache-1.prefetcher.demandMshrMisses      2747886                       # demands not covered by prefetchs (Count)
board.cache_hierarchy.l1d-cache-1.prefetcher.pfIssued    639081452                       # number of hwpf issued (Count)
board.cache_hierarchy.l1d-cache-1.prefetcher.pfUnused       584432                       # number of HardPF blocks evicted w/o reference (Count)
board.cache_hierarchy.l1d-cache-1.prefetcher.pfUseful    163515475                       # number of useful prefetch (Count)
board.cache_hierarchy.l1d-cache-1.prefetcher.pfUsefulButMiss            0                       # number of hit on prefetch but cache block is not in an usable state (Count)
board.cache_hierarchy.l1d-cache-1.prefetcher.accuracy     0.255860                       # accuracy of the prefetcher (Count)
board.cache_hierarchy.l1d-cache-1.prefetcher.coverage     0.983473                       # coverage brought by this prefetcher (Count)
board.cache_hierarchy.l1d-cache-1.prefetcher.pfHitInCache    474693791                       # number of prefetches hitting in cache (Count)
board.cache_hierarchy.l1d-cache-1.prefetcher.pfHitInMSHR       285722                       # number of prefetches hitting in a MSHR (Count)
board.cache_hierarchy.l1d-cache-1.prefetcher.pfHitInWB            0                       # number of prefetches hit in the Write Buffer (Count)
board.cache_hierarchy.l1d-cache-1.prefetcher.pfLate    474979513                       # number of late prefetches (hitting in cache, MSHR or WB) (Count)
board.cache_hierarchy.l1d-cache-1.prefetcher.pfIdentified    639081456                       # number of prefetch candidates identified (Count)
board.cache_hierarchy.l1d-cache-1.prefetcher.pfBufferHit            2                       # number of redundant prefetches already in prefetch queue (Count)
board.cache_hierarchy.l1d-cache-1.prefetcher.pfInCache            0                       # number of redundant prefetches already in cache/mshr dropped (Count)
board.cache_hierarchy.l1d-cache-1.prefetcher.pfRemovedDemand            1                       # number of prefetches dropped due to a demand for the same address (Count)
board.cache_hierarchy.l1d-cache-1.prefetcher.pfRemovedFull            0                       # number of prefetches dropped due to prefetch queue size (Count)
board.cache_hierarchy.l1d-cache-1.prefetcher.pfSpanPage     25977604                       # number of prefetches that crossed the page (Count)
board.cache_hierarchy.l1d-cache-1.prefetcher.pfUsefulSpanPage     25953683                       # number of prefetches that is useful and crossed the page (Count)
board.cache_hierarchy.l1d-cache-1.prefetcher.power_state.pwrStateResidencyTicks::UNDEFINED 3898253719458                       # Cumulative time (in ticks) in various power states (Tick)
board.cache_hierarchy.l1d-cache-1.tags.tagsInUse   511.996431                       # Average ticks per tags in use ((Tick/Count))
board.cache_hierarchy.l1d-cache-1.tags.totalRefs   4135346809                       # Total number of references to valid blocks. (Count)
board.cache_hierarchy.l1d-cache-1.tags.sampledRefs    166849829                       # Sample count of references to valid blocks. (Count)
board.cache_hierarchy.l1d-cache-1.tags.avgRefs    24.784843                       # Average number of references to valid blocks. ((Count/Count))
board.cache_hierarchy.l1d-cache-1.tags.warmupTick        78921                       # The tick when the warmup percentage was hit. (Tick)
board.cache_hierarchy.l1d-cache-1.tags.occupancies::cache_hierarchy.l1d-cache-1.prefetcher   501.859535                       # Average occupied blocks per tick, per requestor ((Count/Tick))
board.cache_hierarchy.l1d-cache-1.tags.occupancies::processor.cores1.core.data    10.136896                       # Average occupied blocks per tick, per requestor ((Count/Tick))
board.cache_hierarchy.l1d-cache-1.tags.avgOccs::cache_hierarchy.l1d-cache-1.prefetcher     0.980194                       # Average percentage of cache occupancy ((Ratio/Tick))
board.cache_hierarchy.l1d-cache-1.tags.avgOccs::processor.cores1.core.data     0.019799                       # Average percentage of cache occupancy ((Ratio/Tick))
board.cache_hierarchy.l1d-cache-1.tags.avgOccs::total     0.999993                       # Average percentage of cache occupancy ((Ratio/Tick))
board.cache_hierarchy.l1d-cache-1.tags.occupanciesTaskId::1022          391                       # Occupied blocks per task id (Count)
board.cache_hierarchy.l1d-cache-1.tags.occupanciesTaskId::1024          120                       # Occupied blocks per task id (Count)
board.cache_hierarchy.l1d-cache-1.tags.ageTaskId_1022::1          257                       # Occupied blocks per task id, per block age (Count)
board.cache_hierarchy.l1d-cache-1.tags.ageTaskId_1022::3          134                       # Occupied blocks per task id, per block age (Count)
board.cache_hierarchy.l1d-cache-1.tags.ageTaskId_1024::0           58                       # Occupied blocks per task id, per block age (Count)
board.cache_hierarchy.l1d-cache-1.tags.ageTaskId_1024::1           59                       # Occupied blocks per task id, per block age (Count)
board.cache_hierarchy.l1d-cache-1.tags.ageTaskId_1024::3            3                       # Occupied blocks per task id, per block age (Count)
board.cache_hierarchy.l1d-cache-1.tags.ratioOccsTaskId::1022     0.763672                       # Ratio of occupied blocks and all blocks, per task id (Ratio)
board.cache_hierarchy.l1d-cache-1.tags.ratioOccsTaskId::1024     0.234375                       # Ratio of occupied blocks and all blocks, per task id (Ratio)
board.cache_hierarchy.l1d-cache-1.tags.tagAccesses  31936825013                       # Number of tag accesses (Count)
board.cache_hierarchy.l1d-cache-1.tags.dataAccesses  31936825013                       # Number of data accesses (Count)
board.cache_hierarchy.l1d-cache-1.tags.power_state.pwrStateResidencyTicks::UNDEFINED 3898253719458                       # Cumulative time (in ticks) in various power states (Tick)
board.cache_hierarchy.l1i-cache-0.demandHits::processor.cores0.core.inst   7376551171                       # number of demand (read+write) hits (Count)
board.cache_hierarchy.l1i-cache-0.demandHits::total   7376551171                       # number of demand (read+write) hits (Count)
board.cache_hierarchy.l1i-cache-0.overallHits::processor.cores0.core.inst   7376551171                       # number of overall hits (Count)
board.cache_hierarchy.l1i-cache-0.overallHits::total   7376551171                       # number of overall hits (Count)
board.cache_hierarchy.l1i-cache-0.demandMisses::processor.cores0.core.inst          713                       # number of demand (read+write) misses (Count)
board.cache_hierarchy.l1i-cache-0.demandMisses::total          713                       # number of demand (read+write) misses (Count)
board.cache_hierarchy.l1i-cache-0.overallMisses::processor.cores0.core.inst          713                       # number of overall misses (Count)
board.cache_hierarchy.l1i-cache-0.overallMisses::total          713                       # number of overall misses (Count)
board.cache_hierarchy.l1i-cache-0.demandMissLatency::processor.cores0.core.inst     27611694                       # number of demand (read+write) miss ticks (Tick)
board.cache_hierarchy.l1i-cache-0.demandMissLatency::total     27611694                       # number of demand (read+write) miss ticks (Tick)
board.cache_hierarchy.l1i-cache-0.overallMissLatency::processor.cores0.core.inst     27611694                       # number of overall miss ticks (Tick)
board.cache_hierarchy.l1i-cache-0.overallMissLatency::total     27611694                       # number of overall miss ticks (Tick)
board.cache_hierarchy.l1i-cache-0.demandAccesses::processor.cores0.core.inst   7376551884                       # number of demand (read+write) accesses (Count)
board.cache_hierarchy.l1i-cache-0.demandAccesses::total   7376551884                       # number of demand (read+write) accesses (Count)
board.cache_hierarchy.l1i-cache-0.overallAccesses::processor.cores0.core.inst   7376551884                       # number of overall (read+write) accesses (Count)
board.cache_hierarchy.l1i-cache-0.overallAccesses::total   7376551884                       # number of overall (read+write) accesses (Count)
board.cache_hierarchy.l1i-cache-0.demandMissRate::processor.cores0.core.inst     0.000000                       # miss rate for demand accesses (Ratio)
board.cache_hierarchy.l1i-cache-0.demandMissRate::total     0.000000                       # miss rate for demand accesses (Ratio)
board.cache_hierarchy.l1i-cache-0.overallMissRate::processor.cores0.core.inst     0.000000                       # miss rate for overall accesses (Ratio)
board.cache_hierarchy.l1i-cache-0.overallMissRate::total     0.000000                       # miss rate for overall accesses (Ratio)
board.cache_hierarchy.l1i-cache-0.demandAvgMissLatency::processor.cores0.core.inst 38726.078541                       # average overall miss latency in ticks ((Tick/Count))
board.cache_hierarchy.l1i-cache-0.demandAvgMissLatency::total 38726.078541                       # average overall miss latency in ticks ((Tick/Count))
board.cache_hierarchy.l1i-cache-0.overallAvgMissLatency::processor.cores0.core.inst 38726.078541                       # average overall miss latency ((Tick/Count))
board.cache_hierarchy.l1i-cache-0.overallAvgMissLatency::total 38726.078541                       # average overall miss latency ((Tick/Count))
board.cache_hierarchy.l1i-cache-0.blockedCycles::no_mshrs            0                       # number of cycles access was blocked (Cycle)
board.cache_hierarchy.l1i-cache-0.blockedCycles::no_wbuffers            0                       # number of cycles access was blocked (Cycle)
board.cache_hierarchy.l1i-cache-0.blockedCycles::no_targets            0                       # number of cycles access was blocked (Cycle)
board.cache_hierarchy.l1i-cache-0.blockedCauses::no_mshrs            0                       # number of times access was blocked (Count)
board.cache_hierarchy.l1i-cache-0.blockedCauses::no_wbuffers            0                       # number of times access was blocked (Count)
board.cache_hierarchy.l1i-cache-0.blockedCauses::no_targets            0                       # number of times access was blocked (Count)
board.cache_hierarchy.l1i-cache-0.avgBlocked::no_mshrs          nan                       # average number of cycles each access was blocked ((Cycle/Count))
board.cache_hierarchy.l1i-cache-0.avgBlocked::no_wbuffers          nan                       # average number of cycles each access was blocked ((Cycle/Count))
board.cache_hierarchy.l1i-cache-0.avgBlocked::no_targets          nan                       # average number of cycles each access was blocked ((Cycle/Count))
board.cache_hierarchy.l1i-cache-0.writebacks::writebacks          203                       # number of writebacks (Count)
board.cache_hierarchy.l1i-cache-0.writebacks::total          203                       # number of writebacks (Count)
board.cache_hierarchy.l1i-cache-0.demandMshrMisses::processor.cores0.core.inst          713                       # number of demand (read+write) MSHR misses (Count)
board.cache_hierarchy.l1i-cache-0.demandMshrMisses::total          713                       # number of demand (read+write) MSHR misses (Count)
board.cache_hierarchy.l1i-cache-0.overallMshrMisses::processor.cores0.core.inst          713                       # number of overall MSHR misses (Count)
board.cache_hierarchy.l1i-cache-0.overallMshrMisses::total          713                       # number of overall MSHR misses (Count)
board.cache_hierarchy.l1i-cache-0.demandMshrMissLatency::processor.cores0.core.inst     27374265                       # number of demand (read+write) MSHR miss ticks (Tick)
board.cache_hierarchy.l1i-cache-0.demandMshrMissLatency::total     27374265                       # number of demand (read+write) MSHR miss ticks (Tick)
board.cache_hierarchy.l1i-cache-0.overallMshrMissLatency::processor.cores0.core.inst     27374265                       # number of overall MSHR miss ticks (Tick)
board.cache_hierarchy.l1i-cache-0.overallMshrMissLatency::total     27374265                       # number of overall MSHR miss ticks (Tick)
board.cache_hierarchy.l1i-cache-0.demandMshrMissRate::processor.cores0.core.inst     0.000000                       # mshr miss ratio for demand accesses (Ratio)
board.cache_hierarchy.l1i-cache-0.demandMshrMissRate::total     0.000000                       # mshr miss ratio for demand accesses (Ratio)
board.cache_hierarchy.l1i-cache-0.overallMshrMissRate::processor.cores0.core.inst     0.000000                       # mshr miss ratio for overall accesses (Ratio)
board.cache_hierarchy.l1i-cache-0.overallMshrMissRate::total     0.000000                       # mshr miss ratio for overall accesses (Ratio)
board.cache_hierarchy.l1i-cache-0.demandAvgMshrMissLatency::processor.cores0.core.inst 38393.078541                       # average overall mshr miss latency ((Tick/Count))
board.cache_hierarchy.l1i-cache-0.demandAvgMshrMissLatency::total 38393.078541                       # average overall mshr miss latency ((Tick/Count))
board.cache_hierarchy.l1i-cache-0.overallAvgMshrMissLatency::processor.cores0.core.inst 38393.078541                       # average overall mshr miss latency ((Tick/Count))
board.cache_hierarchy.l1i-cache-0.overallAvgMshrMissLatency::total 38393.078541                       # average overall mshr miss latency ((Tick/Count))
board.cache_hierarchy.l1i-cache-0.replacements          203                       # number of replacements (Count)
board.cache_hierarchy.l1i-cache-0.ReadReq.hits::processor.cores0.core.inst   7376551171                       # number of ReadReq hits (Count)
board.cache_hierarchy.l1i-cache-0.ReadReq.hits::total   7376551171                       # number of ReadReq hits (Count)
board.cache_hierarchy.l1i-cache-0.ReadReq.misses::processor.cores0.core.inst          713                       # number of ReadReq misses (Count)
board.cache_hierarchy.l1i-cache-0.ReadReq.misses::total          713                       # number of ReadReq misses (Count)
board.cache_hierarchy.l1i-cache-0.ReadReq.missLatency::processor.cores0.core.inst     27611694                       # number of ReadReq miss ticks (Tick)
board.cache_hierarchy.l1i-cache-0.ReadReq.missLatency::total     27611694                       # number of ReadReq miss ticks (Tick)
board.cache_hierarchy.l1i-cache-0.ReadReq.accesses::processor.cores0.core.inst   7376551884                       # number of ReadReq accesses(hits+misses) (Count)
board.cache_hierarchy.l1i-cache-0.ReadReq.accesses::total   7376551884                       # number of ReadReq accesses(hits+misses) (Count)
board.cache_hierarchy.l1i-cache-0.ReadReq.missRate::processor.cores0.core.inst     0.000000                       # miss rate for ReadReq accesses (Ratio)
board.cache_hierarchy.l1i-cache-0.ReadReq.missRate::total     0.000000                       # miss rate for ReadReq accesses (Ratio)
board.cache_hierarchy.l1i-cache-0.ReadReq.avgMissLatency::processor.cores0.core.inst 38726.078541                       # average ReadReq miss latency ((Tick/Count))
board.cache_hierarchy.l1i-cache-0.ReadReq.avgMissLatency::total 38726.078541                       # average ReadReq miss latency ((Tick/Count))
board.cache_hierarchy.l1i-cache-0.ReadReq.mshrMisses::processor.cores0.core.inst          713                       # number of ReadReq MSHR misses (Count)
board.cache_hierarchy.l1i-cache-0.ReadReq.mshrMisses::total          713                       # number of ReadReq MSHR misses (Count)
board.cache_hierarchy.l1i-cache-0.ReadReq.mshrMissLatency::processor.cores0.core.inst     27374265                       # number of ReadReq MSHR miss ticks (Tick)
board.cache_hierarchy.l1i-cache-0.ReadReq.mshrMissLatency::total     27374265                       # number of ReadReq MSHR miss ticks (Tick)
board.cache_hierarchy.l1i-cache-0.ReadReq.mshrMissRate::processor.cores0.core.inst     0.000000                       # mshr miss rate for ReadReq accesses (Ratio)
board.cache_hierarchy.l1i-cache-0.ReadReq.mshrMissRate::total     0.000000                       # mshr miss rate for ReadReq accesses (Ratio)
board.cache_hierarchy.l1i-cache-0.ReadReq.avgMshrMissLatency::processor.cores0.core.inst 38393.078541                       # average ReadReq mshr miss latency ((Tick/Count))
board.cache_hierarchy.l1i-cache-0.ReadReq.avgMshrMissLatency::total 38393.078541                       # average ReadReq mshr miss latency ((Tick/Count))
board.cache_hierarchy.l1i-cache-0.power_state.pwrStateResidencyTicks::UNDEFINED 3898253719458                       # Cumulative time (in ticks) in various power states (Tick)
board.cache_hierarchy.l1i-cache-0.prefetcher.demandMshrMisses          713                       # demands not covered by prefetchs (Count)
board.cache_hierarchy.l1i-cache-0.prefetcher.pfIssued            0                       # number of hwpf issued (Count)
board.cache_hierarchy.l1i-cache-0.prefetcher.pfUseful            0                       # number of useful prefetch (Count)
board.cache_hierarchy.l1i-cache-0.prefetcher.pfUsefulButMiss            0                       # number of hit on prefetch but cache block is not in an usable state (Count)
board.cache_hierarchy.l1i-cache-0.prefetcher.accuracy          nan                       # accuracy of the prefetcher (Count)
board.cache_hierarchy.l1i-cache-0.prefetcher.coverage            0                       # coverage brought by this prefetcher (Count)
board.cache_hierarchy.l1i-cache-0.prefetcher.pfHitInCache            0                       # number of prefetches hitting in cache (Count)
board.cache_hierarchy.l1i-cache-0.prefetcher.pfHitInMSHR            0                       # number of prefetches hitting in a MSHR (Count)
board.cache_hierarchy.l1i-cache-0.prefetcher.pfHitInWB            0                       # number of prefetches hit in the Write Buffer (Count)
board.cache_hierarchy.l1i-cache-0.prefetcher.pfLate            0                       # number of late prefetches (hitting in cache, MSHR or WB) (Count)
board.cache_hierarchy.l1i-cache-0.prefetcher.pfIdentified            0                       # number of prefetch candidates identified (Count)
board.cache_hierarchy.l1i-cache-0.prefetcher.pfBufferHit            0                       # number of redundant prefetches already in prefetch queue (Count)
board.cache_hierarchy.l1i-cache-0.prefetcher.pfInCache            0                       # number of redundant prefetches already in cache/mshr dropped (Count)
board.cache_hierarchy.l1i-cache-0.prefetcher.pfRemovedDemand            0                       # number of prefetches dropped due to a demand for the same address (Count)
board.cache_hierarchy.l1i-cache-0.prefetcher.pfRemovedFull            0                       # number of prefetches dropped due to prefetch queue size (Count)
board.cache_hierarchy.l1i-cache-0.prefetcher.pfSpanPage            0                       # number of prefetches that crossed the page (Count)
board.cache_hierarchy.l1i-cache-0.prefetcher.pfUsefulSpanPage            0                       # number of prefetches that is useful and crossed the page (Count)
board.cache_hierarchy.l1i-cache-0.prefetcher.power_state.pwrStateResidencyTicks::UNDEFINED 3898253719458                       # Cumulative time (in ticks) in various power states (Tick)
board.cache_hierarchy.l1i-cache-0.tags.tagsInUse   472.895634                       # Average ticks per tags in use ((Tick/Count))
board.cache_hierarchy.l1i-cache-0.tags.totalRefs   3081584588                       # Total number of references to valid blocks. (Count)
board.cache_hierarchy.l1i-cache-0.tags.sampledRefs          713                       # Sample count of references to valid blocks. (Count)
board.cache_hierarchy.l1i-cache-0.tags.avgRefs 4321998.019635                       # Average number of references to valid blocks. ((Count/Count))
board.cache_hierarchy.l1i-cache-0.tags.warmupTick        43290                       # The tick when the warmup percentage was hit. (Tick)
board.cache_hierarchy.l1i-cache-0.tags.occupancies::processor.cores0.core.inst   472.895634                       # Average occupied blocks per tick, per requestor ((Count/Tick))
board.cache_hierarchy.l1i-cache-0.tags.avgOccs::processor.cores0.core.inst     0.923624                       # Average percentage of cache occupancy ((Ratio/Tick))
board.cache_hierarchy.l1i-cache-0.tags.avgOccs::total     0.923624                       # Average percentage of cache occupancy ((Ratio/Tick))
board.cache_hierarchy.l1i-cache-0.tags.occupanciesTaskId::1024          510                       # Occupied blocks per task id (Count)
board.cache_hierarchy.l1i-cache-0.tags.ageTaskId_1024::0          120                       # Occupied blocks per task id, per block age (Count)
board.cache_hierarchy.l1i-cache-0.tags.ageTaskId_1024::1           71                       # Occupied blocks per task id, per block age (Count)
board.cache_hierarchy.l1i-cache-0.tags.ageTaskId_1024::4          319                       # Occupied blocks per task id, per block age (Count)
board.cache_hierarchy.l1i-cache-0.tags.ratioOccsTaskId::1024     0.996094                       # Ratio of occupied blocks and all blocks, per task id (Ratio)
board.cache_hierarchy.l1i-cache-0.tags.tagAccesses  59012415785                       # Number of tag accesses (Count)
board.cache_hierarchy.l1i-cache-0.tags.dataAccesses  59012415785                       # Number of data accesses (Count)
board.cache_hierarchy.l1i-cache-0.tags.power_state.pwrStateResidencyTicks::UNDEFINED 3898253719458                       # Cumulative time (in ticks) in various power states (Tick)
board.cache_hierarchy.l1i-cache-1.demandHits::processor.cores1.core.inst   7376552220                       # number of demand (read+write) hits (Count)
board.cache_hierarchy.l1i-cache-1.demandHits::total   7376552220                       # number of demand (read+write) hits (Count)
board.cache_hierarchy.l1i-cache-1.overallHits::processor.cores1.core.inst   7376552220                       # number of overall hits (Count)
board.cache_hierarchy.l1i-cache-1.overallHits::total   7376552220                       # number of overall hits (Count)
board.cache_hierarchy.l1i-cache-1.demandMisses::processor.cores1.core.inst          758                       # number of demand (read+write) misses (Count)
board.cache_hierarchy.l1i-cache-1.demandMisses::total          758                       # number of demand (read+write) misses (Count)
board.cache_hierarchy.l1i-cache-1.overallMisses::processor.cores1.core.inst          758                       # number of overall misses (Count)
board.cache_hierarchy.l1i-cache-1.overallMisses::total          758                       # number of overall misses (Count)
board.cache_hierarchy.l1i-cache-1.demandMissLatency::processor.cores1.core.inst     29386917                       # number of demand (read+write) miss ticks (Tick)
board.cache_hierarchy.l1i-cache-1.demandMissLatency::total     29386917                       # number of demand (read+write) miss ticks (Tick)
board.cache_hierarchy.l1i-cache-1.overallMissLatency::processor.cores1.core.inst     29386917                       # number of overall miss ticks (Tick)
board.cache_hierarchy.l1i-cache-1.overallMissLatency::total     29386917                       # number of overall miss ticks (Tick)
board.cache_hierarchy.l1i-cache-1.demandAccesses::processor.cores1.core.inst   7376552978                       # number of demand (read+write) accesses (Count)
board.cache_hierarchy.l1i-cache-1.demandAccesses::total   7376552978                       # number of demand (read+write) accesses (Count)
board.cache_hierarchy.l1i-cache-1.overallAccesses::processor.cores1.core.inst   7376552978                       # number of overall (read+write) accesses (Count)
board.cache_hierarchy.l1i-cache-1.overallAccesses::total   7376552978                       # number of overall (read+write) accesses (Count)
board.cache_hierarchy.l1i-cache-1.demandMissRate::processor.cores1.core.inst     0.000000                       # miss rate for demand accesses (Ratio)
board.cache_hierarchy.l1i-cache-1.demandMissRate::total     0.000000                       # miss rate for demand accesses (Ratio)
board.cache_hierarchy.l1i-cache-1.overallMissRate::processor.cores1.core.inst     0.000000                       # miss rate for overall accesses (Ratio)
board.cache_hierarchy.l1i-cache-1.overallMissRate::total     0.000000                       # miss rate for overall accesses (Ratio)
board.cache_hierarchy.l1i-cache-1.demandAvgMissLatency::processor.cores1.core.inst 38769.019789                       # average overall miss latency in ticks ((Tick/Count))
board.cache_hierarchy.l1i-cache-1.demandAvgMissLatency::total 38769.019789                       # average overall miss latency in ticks ((Tick/Count))
board.cache_hierarchy.l1i-cache-1.overallAvgMissLatency::processor.cores1.core.inst 38769.019789                       # average overall miss latency ((Tick/Count))
board.cache_hierarchy.l1i-cache-1.overallAvgMissLatency::total 38769.019789                       # average overall miss latency ((Tick/Count))
board.cache_hierarchy.l1i-cache-1.blockedCycles::no_mshrs            0                       # number of cycles access was blocked (Cycle)
board.cache_hierarchy.l1i-cache-1.blockedCycles::no_wbuffers            0                       # number of cycles access was blocked (Cycle)
board.cache_hierarchy.l1i-cache-1.blockedCycles::no_targets            0                       # number of cycles access was blocked (Cycle)
board.cache_hierarchy.l1i-cache-1.blockedCauses::no_mshrs            0                       # number of times access was blocked (Count)
board.cache_hierarchy.l1i-cache-1.blockedCauses::no_wbuffers            0                       # number of times access was blocked (Count)
board.cache_hierarchy.l1i-cache-1.blockedCauses::no_targets            0                       # number of times access was blocked (Count)
board.cache_hierarchy.l1i-cache-1.avgBlocked::no_mshrs          nan                       # average number of cycles each access was blocked ((Cycle/Count))
board.cache_hierarchy.l1i-cache-1.avgBlocked::no_wbuffers          nan                       # average number of cycles each access was blocked ((Cycle/Count))
board.cache_hierarchy.l1i-cache-1.avgBlocked::no_targets          nan                       # average number of cycles each access was blocked ((Cycle/Count))
board.cache_hierarchy.l1i-cache-1.writebacks::writebacks          247                       # number of writebacks (Count)
board.cache_hierarchy.l1i-cache-1.writebacks::total          247                       # number of writebacks (Count)
board.cache_hierarchy.l1i-cache-1.demandMshrMisses::processor.cores1.core.inst          758                       # number of demand (read+write) MSHR misses (Count)
board.cache_hierarchy.l1i-cache-1.demandMshrMisses::total          758                       # number of demand (read+write) MSHR misses (Count)
board.cache_hierarchy.l1i-cache-1.overallMshrMisses::processor.cores1.core.inst          758                       # number of overall MSHR misses (Count)
board.cache_hierarchy.l1i-cache-1.overallMshrMisses::total          758                       # number of overall MSHR misses (Count)
board.cache_hierarchy.l1i-cache-1.demandMshrMissLatency::processor.cores1.core.inst     29134503                       # number of demand (read+write) MSHR miss ticks (Tick)
board.cache_hierarchy.l1i-cache-1.demandMshrMissLatency::total     29134503                       # number of demand (read+write) MSHR miss ticks (Tick)
board.cache_hierarchy.l1i-cache-1.overallMshrMissLatency::processor.cores1.core.inst     29134503                       # number of overall MSHR miss ticks (Tick)
board.cache_hierarchy.l1i-cache-1.overallMshrMissLatency::total     29134503                       # number of overall MSHR miss ticks (Tick)
board.cache_hierarchy.l1i-cache-1.demandMshrMissRate::processor.cores1.core.inst     0.000000                       # mshr miss ratio for demand accesses (Ratio)
board.cache_hierarchy.l1i-cache-1.demandMshrMissRate::total     0.000000                       # mshr miss ratio for demand accesses (Ratio)
board.cache_hierarchy.l1i-cache-1.overallMshrMissRate::processor.cores1.core.inst     0.000000                       # mshr miss ratio for overall accesses (Ratio)
board.cache_hierarchy.l1i-cache-1.overallMshrMissRate::total     0.000000                       # mshr miss ratio for overall accesses (Ratio)
board.cache_hierarchy.l1i-cache-1.demandAvgMshrMissLatency::processor.cores1.core.inst 38436.019789                       # average overall mshr miss latency ((Tick/Count))
board.cache_hierarchy.l1i-cache-1.demandAvgMshrMissLatency::total 38436.019789                       # average overall mshr miss latency ((Tick/Count))
board.cache_hierarchy.l1i-cache-1.overallAvgMshrMissLatency::processor.cores1.core.inst 38436.019789                       # average overall mshr miss latency ((Tick/Count))
board.cache_hierarchy.l1i-cache-1.overallAvgMshrMissLatency::total 38436.019789                       # average overall mshr miss latency ((Tick/Count))
board.cache_hierarchy.l1i-cache-1.replacements          247                       # number of replacements (Count)
board.cache_hierarchy.l1i-cache-1.ReadReq.hits::processor.cores1.core.inst   7376552220                       # number of ReadReq hits (Count)
board.cache_hierarchy.l1i-cache-1.ReadReq.hits::total   7376552220                       # number of ReadReq hits (Count)
board.cache_hierarchy.l1i-cache-1.ReadReq.misses::processor.cores1.core.inst          758                       # number of ReadReq misses (Count)
board.cache_hierarchy.l1i-cache-1.ReadReq.misses::total          758                       # number of ReadReq misses (Count)
board.cache_hierarchy.l1i-cache-1.ReadReq.missLatency::processor.cores1.core.inst     29386917                       # number of ReadReq miss ticks (Tick)
[...]
board.processor.cores1.core.commitStats0.committedInstType::SimdCmp            6      0.00%     41.42% # Class of committed instruction. (Count)
board.processor.cores1.core.commitStats0.committedInstType::SimdCvt      3620100      0.03%     41.45% # Class of committed instruction. (Count)
board.processor.cores1.core.commitStats0.committedInstType::SimdMisc     10869862      0.10%     41.54% # Class of committed instruction. (Count)
board.processor.cores1.core.commitStats0.committedInstType::SimdMult     14480000      0.13%     41.67% # Class of committed instruction. (Count)
board.processor.cores1.core.commitStats0.committedInstType::SimdMultAcc            0      0.00%     41.67% # Class of committed instruction. (Count)
board.processor.cores1.core.commitStats0.committedInstType::SimdMatMultAcc            0      0.00%     41.67% # Class of committed instruction. (Count)
board.processor.cores1.core.commitStats0.committedInstType::SimdShift     15146403      0.13%     41.80% # Class of committed instruction. (Count)
board.processor.cores1.core.commitStats0.committedInstType::SimdShiftAcc            0      0.00%     41.80% # Class of committed instruction. (Count)
board.processor.cores1.core.commitStats0.committedInstType::SimdDiv            0      0.00%     41.80% # Class of committed instruction. (Count)
board.processor.cores1.core.commitStats0.committedInstType::SimdSqrt            0      0.00%     41.80% # Class of committed instruction. (Count)
board.processor.cores1.core.commitStats0.committedInstType::SimdFloatAdd   1324194563     11.63%     53.44% # Class of committed instruction. (Count)
board.processor.cores1.core.commitStats0.committedInstType::SimdFloatAlu            0      0.00%     53.44% # Class of committed instruction. (Count)
board.processor.cores1.core.commitStats0.committedInstType::SimdFloatCmp            0      0.00%     53.44% # Class of committed instruction. (Count)
board.processor.cores1.core.commitStats0.committedInstType::SimdFloatCvt      3620007      0.03%     53.47% # Class of committed instruction. (Count)
board.processor.cores1.core.commitStats0.committedInstType::SimdFloatDiv      3620000      0.03%     53.50% # Class of committed instruction. (Count)
board.processor.cores1.core.commitStats0.committedInstType::SimdFloatMisc            0      0.00%     53.50% # Class of committed instruction. (Count)
board.processor.cores1.core.commitStats0.committedInstType::SimdFloatMult   1322300002     11.62%     65.12% # Class of committed instruction. (Count)
board.processor.cores1.core.commitStats0.committedInstType::SimdFloatMultAcc            0      0.00%     65.12% # Class of committed instruction. (Count)
board.processor.cores1.core.commitStats0.committedInstType::SimdFloatMatMultAcc            0      0.00%     65.12% # Class of committed instruction. (Count)
board.processor.cores1.core.commitStats0.committedInstType::SimdFloatSqrt            0      0.00%     65.12% # Class of committed instruction. (Count)
board.processor.cores1.core.commitStats0.committedInstType::SimdReduceAdd            0      0.00%     65.12% # Class of committed instruction. (Count)
board.processor.cores1.core.commitStats0.committedInstType::SimdReduceAlu            0      0.00%     65.12% # Class of committed instruction. (Count)
board.processor.cores1.core.commitStats0.committedInstType::SimdReduceCmp            0      0.00%     65.12% # Class of committed instruction. (Count)
board.processor.cores1.core.commitStats0.committedInstType::SimdFloatReduceAdd            0      0.00%     65.12% # Class of committed instruction. (Count)
board.processor.cores1.core.commitStats0.committedInstType::SimdFloatReduceCmp            0      0.00%     65.12% # Class of committed instruction. (Count)
board.processor.cores1.core.commitStats0.committedInstType::SimdAes            0      0.00%     65.12% # Class of committed instruction. (Count)
board.processor.cores1.core.commitStats0.committedInstType::SimdAesMix            0      0.00%     65.12% # Class of committed instruction. (Count)
board.processor.cores1.core.commitStats0.committedInstType::SimdSha1Hash            0      0.00%     65.12% # Class of committed instruction. (Count)
board.processor.cores1.core.commitStats0.committedInstType::SimdSha1Hash2            0      0.00%     65.12% # Class of committed instruction. (Count)
board.processor.cores1.core.commitStats0.committedInstType::SimdSha256Hash            0      0.00%     65.12% # Class of committed instruction. (Count)
board.processor.cores1.core.commitStats0.committedInstType::SimdSha256Hash2            0      0.00%     65.12% # Class of committed instruction. (Count)
board.processor.cores1.core.commitStats0.committedInstType::SimdShaSigma2            0      0.00%     65.12% # Class of committed instruction. (Count)
board.processor.cores1.core.commitStats0.committedInstType::SimdShaSigma3            0      0.00%     65.12% # Class of committed instruction. (Count)
board.processor.cores1.core.commitStats0.committedInstType::SimdSha3            0      0.00%     65.12% # Class of committed instruction. (Count)
board.processor.cores1.core.commitStats0.committedInstType::SimdSm4e            0      0.00%     65.12% # Class of committed instruction. (Count)
board.processor.cores1.core.commitStats0.committedInstType::SimdCrc            0      0.00%     65.12% # Class of committed instruction. (Count)
board.processor.cores1.core.commitStats0.committedInstType::SimdPredAlu            0      0.00%     65.12% # Class of committed instruction. (Count)
board.processor.cores1.core.commitStats0.committedInstType::SimdDotProd            0      0.00%     65.12% # Class of committed instruction. (Count)
board.processor.cores1.core.commitStats0.committedInstType::Matrix            0      0.00%     65.12% # Class of committed instruction. (Count)
board.processor.cores1.core.commitStats0.committedInstType::MatrixMov            0      0.00%     65.12% # Class of committed instruction. (Count)
board.processor.cores1.core.commitStats0.committedInstType::MatrixOP            0      0.00%     65.12% # Class of committed instruction. (Count)
board.processor.cores1.core.commitStats0.committedInstType::MemRead        20585      0.00%     65.12% # Class of committed instruction. (Count)
board.processor.cores1.core.commitStats0.committedInstType::MemWrite        10978      0.00%     65.12% # Class of committed instruction. (Count)
board.processor.cores1.core.commitStats0.committedInstType::FloatMemRead   2646494752     23.25%     88.36% # Class of committed instruction. (Count)
board.processor.cores1.core.commitStats0.committedInstType::FloatMemWrite   1324720577     11.64%    100.00% # Class of committed instruction. (Count)
board.processor.cores1.core.commitStats0.committedInstType::InstPrefetch            0      0.00%    100.00% # Class of committed instruction. (Count)
board.processor.cores1.core.commitStats0.committedInstType::SimdUnitStrideLoad            0      0.00%    100.00% # Class of committed instruction. (Count)
board.processor.cores1.core.commitStats0.committedInstType::SimdUnitStrideStore            0      0.00%    100.00% # Class of committed instruction. (Count)
board.processor.cores1.core.commitStats0.committedInstType::SimdUnitStrideMaskLoad            0      0.00%    100.00% # Class of committed instruction. (Count)
board.processor.cores1.core.commitStats0.committedInstType::SimdUnitStrideMaskStore            0      0.00%    100.00% # Class of committed instruction. (Count)
board.processor.cores1.core.commitStats0.committedInstType::SimdStridedLoad            0      0.00%    100.00% # Class of committed instruction. (Count)
board.processor.cores1.core.commitStats0.committedInstType::SimdStridedStore            0      0.00%    100.00% # Class of committed instruction. (Count)
board.processor.cores1.core.commitStats0.committedInstType::SimdIndexedLoad            0      0.00%    100.00% # Class of committed instruction. (Count)
board.processor.cores1.core.commitStats0.committedInstType::SimdIndexedStore            0      0.00%    100.00% # Class of committed instruction. (Count)
board.processor.cores1.core.commitStats0.committedInstType::SimdWholeRegisterLoad            0      0.00%    100.00% # Class of committed instruction. (Count)
board.processor.cores1.core.commitStats0.committedInstType::SimdWholeRegisterStore            0      0.00%    100.00% # Class of committed instruction. (Count)
board.processor.cores1.core.commitStats0.committedInstType::SimdUnitStrideFaultOnlyFirstLoad            0      0.00%    100.00% # Class of committed instruction. (Count)
board.processor.cores1.core.commitStats0.committedInstType::SimdUnitStrideSegmentedLoad            0      0.00%    100.00% # Class of committed instruction. (Count)
board.processor.cores1.core.commitStats0.committedInstType::SimdUnitStrideSegmentedStore            0      0.00%    100.00% # Class of committed instruction. (Count)
board.processor.cores1.core.commitStats0.committedInstType::SimdUnitStrideSegmentedFaultOnlyFirstLoad            0      0.00%    100.00% # Class of committed instruction. (Count)
board.processor.cores1.core.commitStats0.committedInstType::SimdStrideSegmentedLoad            0      0.00%    100.00% # Class of committed instruction. (Count)
board.processor.cores1.core.commitStats0.committedInstType::SimdStrideSegmentedStore            0      0.00%    100.00% # Class of committed instruction. (Count)
board.processor.cores1.core.commitStats0.committedInstType::SimdExt            0      0.00%    100.00% # Class of committed instruction. (Count)
board.processor.cores1.core.commitStats0.committedInstType::SimdFloatExt            0      0.00%    100.00% # Class of committed instruction. (Count)
board.processor.cores1.core.commitStats0.committedInstType::SimdConfig            0      0.00%    100.00% # Class of committed instruction. (Count)
board.processor.cores1.core.commitStats0.committedInstType::SimdBf16Add            0      0.00%    100.00% # Class of committed instruction. (Count)
board.processor.cores1.core.commitStats0.committedInstType::SimdBf16Cmp            0      0.00%    100.00% # Class of committed instruction. (Count)
board.processor.cores1.core.commitStats0.committedInstType::SimdBf16Cvt            0      0.00%    100.00% # Class of committed instruction. (Count)
board.processor.cores1.core.commitStats0.committedInstType::SimdBf16DotProd            0      0.00%    100.00% # Class of committed instruction. (Count)
board.processor.cores1.core.commitStats0.committedInstType::SimdBf16MatMultAcc            0      0.00%    100.00% # Class of committed instruction. (Count)
board.processor.cores1.core.commitStats0.committedInstType::SimdBf16Mult            0      0.00%    100.00% # Class of committed instruction. (Count)
board.processor.cores1.core.commitStats0.committedInstType::SimdBf16MultAcc            0      0.00%    100.00% # Class of committed instruction. (Count)
board.processor.cores1.core.commitStats0.committedInstType::Bf16Cvt            0      0.00%    100.00% # Class of committed instruction. (Count)
board.processor.cores1.core.commitStats0.committedInstType::System            0      0.00%    100.00% # Class of committed instruction. (Count)
board.processor.cores1.core.commitStats0.committedInstType::total  11383872116                       # Class of committed instruction. (Count)
board.processor.cores1.core.commitStats0.committedControl::IsControl    667191494                       # Class of control type instructions committed (Count)
board.processor.cores1.core.commitStats0.committedControl::IsDirectControl    667186725                       # Class of control type instructions committed (Count)
board.processor.cores1.core.commitStats0.committedControl::IsIndirectControl         4769                       # Class of control type instructions committed (Count)
board.processor.cores1.core.commitStats0.committedControl::IsCondControl    667180781                       # Class of control type instructions committed (Count)
board.processor.cores1.core.commitStats0.committedControl::IsUncondControl        10713                       # Class of control type instructions committed (Count)
board.processor.cores1.core.commitStats0.committedControl::IsCall         2509                       # Class of control type instructions committed (Count)
board.processor.cores1.core.commitStats0.committedControl::IsReturn         2504                       # Class of control type instructions committed (Count)
board.processor.cores1.core.commitStats0.functionCalls         2509                       # Number of function calls committed (Count)
board.processor.cores1.core.commitStats0.numCallsReturns         5013                       # Number of function calls and returns committed (Count)
board.processor.cores1.core.exec_context.thread_0.numMatAluAccesses            0                       # Number of matrix alu accesses (Count)
board.processor.cores1.core.exec_context.thread_0.numMatInsts            0                       # Number of matrix instructions (Count)
board.processor.cores1.core.exec_context.thread_0.numIdleCycles     0.003004                       # Number of idle cycles (Cycle)
board.processor.cores1.core.exec_context.thread_0.numBusyCycles 11706467625.996996                       # Number of busy cycles (Cycle)
board.processor.cores1.core.exec_context.thread_0.notIdleFraction     1.000000                       # Percentage of non-idle cycles (Ratio)
board.processor.cores1.core.exec_context.thread_0.idleFraction     0.000000                       # Percentage of idle cycles (Ratio)
board.processor.cores1.core.executeStats0.numInsts   5363889033                       # Number of executed instructions (Count)
board.processor.cores1.core.executeStats0.numNop            0                       # Number of nop insts executed (Count)
board.processor.cores1.core.executeStats0.numBranches    667191494                       # Number of branches executed (Count)
board.processor.cores1.core.executeStats0.numLoadInsts   2646515337                       # Number of load instructions executed (Count)
board.processor.cores1.core.executeStats0.numStoreInsts   1324731555                       # Number of stores executed (Count)
board.processor.cores1.core.executeStats0.instRate     0.458199                       # Inst execution rate ((Count/Cycle))
board.processor.cores1.core.executeStats0.numCCRegReads   3359928746                       # Number of times the CC registers were read (Count)
board.processor.cores1.core.executeStats0.numCCRegWrites   2673530588                       # Number of times the CC registers were written (Count)
board.processor.cores1.core.executeStats0.numFpAluAccesses   6709851130                       # Number of float alu accesses (Count)
board.processor.cores1.core.executeStats0.numFpRegReads   9489281953                       # Number of times the floating registers were read (Count)
board.processor.cores1.core.executeStats0.numFpRegWrites   5385130470                       # Number of times the floating registers were written (Count)
board.processor.cores1.core.executeStats0.numIntAluAccesses   8645233845                       # Number of integer alu accesses (Count)
board.processor.cores1.core.executeStats0.numIntRegReads  11957279295                       # Number of times the integer registers were read (Count)
board.processor.cores1.core.executeStats0.numIntRegWrites   3338431611                       # Number of times the integer registers were written (Count)
board.processor.cores1.core.executeStats0.numMemRefs   3971246892                       # Number of memory refs (Count)
board.processor.cores1.core.executeStats0.numMiscRegReads   5305643075                       # Number of times the Misc registers were read (Count)
board.processor.cores1.core.executeStats0.numVecAluAccesses            0                       # Number of vector alu accesses (Count)
board.processor.cores1.core.executeStats0.numDiscardedOps            0                       # Number of ops (including micro ops) which were discarded before commit (Count)
board.processor.cores1.core.fetchStats0.numInsts   5363889065                       # Number of instructions fetched (thread level) (Count)
board.processor.cores1.core.fetchStats0.numOps  11383887414                       # Number of ops (including micro ops) fetched (thread level) (Count)
board.processor.cores1.core.fetchStats0.fetchRate     0.458199                       # Number of inst fetches per cycle ((Count/Cycle))
board.processor.cores1.core.fetchStats0.numBranches    667191494                       # Number of branches fetched (Count)
board.processor.cores1.core.fetchStats0.branchRate     0.056993                       # Number of branch fetches per cycle (Ratio)
board.processor.cores1.core.fetchStats0.numFetchSuspends            0                       # Number of times Execute suspended instruction fetching (Count)
board.processor.cores1.core.interrupts.clk_domain.clock         5328                       # Clock period in ticks (Tick)
board.processor.cores1.core.mmu.dtb.rdAccesses   2646523535                       # TLB accesses on read requests (Count)
board.processor.cores1.core.mmu.dtb.wrAccesses   1324738635                       # TLB accesses on write requests (Count)
board.processor.cores1.core.mmu.dtb.exAccesses            0                       # TLB accesses on execute (instr) requests (Count)
board.processor.cores1.core.mmu.dtb.rdMisses      2599949                       # TLB misses on read requests (Count)
board.processor.cores1.core.mmu.dtb.wrMisses        14171                       # TLB misses on write requests (Count)
board.processor.cores1.core.mmu.dtb.exMisses            0                       # TLB misses on execute (instr) requests (Count)
board.processor.cores1.core.mmu.dtb.walker.power_state.pwrStateResidencyTicks::UNDEFINED 3898253719458                       # Cumulative time (in ticks) in various power states (Tick)
board.processor.cores1.core.mmu.itb.rdAccesses            0                       # TLB accesses on read requests (Count)
board.processor.cores1.core.mmu.itb.wrAccesses            0                       # TLB accesses on write requests (Count)
board.processor.cores1.core.mmu.itb.exAccesses   7376552978                       # TLB accesses on execute (instr) requests (Count)
board.processor.cores1.core.mmu.itb.rdMisses            0                       # TLB misses on read requests (Count)
board.processor.cores1.core.mmu.itb.wrMisses            0                       # TLB misses on write requests (Count)
board.processor.cores1.core.mmu.itb.exMisses          101                       # TLB misses on execute (instr) requests (Count)
board.processor.cores1.core.mmu.itb.walker.power_state.pwrStateResidencyTicks::UNDEFINED 3898253719458                       # Cumulative time (in ticks) in various power states (Tick)
board.processor.cores1.core.power_state.pwrStateResidencyTicks::ON 3898253719458                       # Cumulative time (in ticks) in various power states (Tick)
board.processor.cores1.core.thread_0.numInsts   5363889033                       # Number of Instructions committed (Count)
board.processor.cores1.core.thread_0.numOps  11383872116                       # Number of Ops committed (Count)
board.processor.cores1.core.thread_0.numMemRefs   3971246892                       # Number of Memory References (Count)
board.processor.cores1.core.workload.numSyscalls           26                       # Number of system calls (Count)
board.workload.inst.arm                             0                       # number of arm instructions executed (Count)
board.workload.inst.quiesce                         0                       # number of quiesce instructions executed (Count)

---------- End Simulation Statistics   ----------
