
---------- Begin Simulation Statistics ----------
simSeconds                                  66.164974                       # Number of seconds simulated (Second)
simTicks                                 66164974123000                       # Number of ticks simulated (Tick)
finalTick                                66164974123000                       # Number of ticks from beginning of simulation (restored from checkpoints and never reset) (Tick)
simFreq                                  1000000000000                       # The number of ticks per simulated second ((Tick/Second))
hostSeconds                                   8687.12                       # Real time elapsed on the host (Second)
hostTickRate                               7616444671                       # The number of ticks simulated per host second (ticks/s) ((Tick/Second))
hostMemory                                     688744                       # Number of bytes of host memory used (Byte)
simInsts                                  10617797879                       # Number of instructions simulated (Count)
simOps                                    19917690111                       # Number of ops (including micro ops) simulated (Count)
hostInstRate                                  1222246                       # Simulator instruction rate (inst/s) ((Count/Second))
hostOpRate                                    2292784                       # Simulator op (including micro ops) rate (op/s) ((Count/Second))
system.clk_domain.clock                          1000                       # Clock period in ticks (Tick)
system.clk_domain.voltage_domain.voltage            1                       # Voltage in Volts (Volt)
system.cpu.numCycles                      66164974123                       # Number of cpu cycles simulated (Cycle)
system.cpu.cpi                               6.231516                       # CPI: cycles per instruction (core level) ((Cycle/Count))
system.cpu.ipc                               0.160475                       # IPC: instructions per cycle (core level) ((Count/Cycle))
system.cpu.numWorkItemsStarted                      0                       # Number of work items this cpu started (Count)
system.cpu.numWorkItemsCompleted                    0                       # Number of work items this cpu completed (Count)
system.cpu.commitStats0.numInsts          10617797903                       # Number of instructions committed (thread level) (Count)
system.cpu.commitStats0.numOps            19917697209                       # Number of ops (including micro ops) committed (thread level) (Count)
system.cpu.commitStats0.numInstsNotNOP              0                       # Number of instructions committed excluding NOPs or prefetches (Count)
system.cpu.commitStats0.numOpsNotNOP                0                       # Number of Ops (including micro ops) Simulated (Count)
system.cpu.commitStats0.cpi                  6.231516                       # CPI: cycles per instruction (thread level) ((Cycle/Count))
system.cpu.commitStats0.ipc                  0.160475                       # IPC: instructions per cycle (thread level) ((Count/Cycle))
system.cpu.commitStats0.numMemRefs                  0                       # Number of memory references committed (Count)
system.cpu.commitStats0.numFpInsts        10656668832                       # Number of float instructions (Count)
system.cpu.commitStats0.numIntInsts       14545653709                       # Number of integer instructions (Count)
system.cpu.commitStats0.numLoadInsts       3961119942                       # Number of load instructions (Count)
system.cpu.commitStats0.numStoreInsts      1324738067                       # Number of store instructions (Count)
system.cpu.commitStats0.numVecInsts                 0                       # Number of vector instructions (Count)
system.cpu.commitStats0.committedInstType::No_OpClass      1205487      0.01%      0.01% # Class of committed instruction. (Count)
system.cpu.commitStats0.committedInstType::IntAlu   9281223627     46.60%     46.60% # Class of committed instruction. (Count)
system.cpu.commitStats0.committedInstType::IntMult           44      0.00%     46.60% # Class of committed instruction. (Count)
system.cpu.commitStats0.committedInstType::IntDiv          114      0.00%     46.60% # Class of committed instruction. (Count)
system.cpu.commitStats0.committedInstType::FloatAdd   1320003351      6.63%     53.23% # Class of committed instruction. (Count)
system.cpu.commitStats0.committedInstType::FloatCmp            0      0.00%     53.23% # Class of committed instruction. (Count)
system.cpu.commitStats0.committedInstType::FloatCvt            0      0.00%     53.23% # Class of committed instruction. (Count)
system.cpu.commitStats0.committedInstType::FloatMult            0      0.00%     53.23% # Class of committed instruction. (Count)
system.cpu.commitStats0.committedInstType::FloatMultAcc            0      0.00%     53.23% # Class of committed instruction. (Count)
system.cpu.commitStats0.committedInstType::FloatDiv            0      0.00%     53.23% # Class of committed instruction. (Count)
system.cpu.commitStats0.committedInstType::FloatMisc            0      0.00%     53.23% # Class of committed instruction. (Count)
system.cpu.commitStats0.committedInstType::FloatSqrt            0      0.00%     53.23% # Class of committed instruction. (Count)
system.cpu.commitStats0.committedInstType::SimdAdd     16950010      0.09%     53.32% # Class of committed instruction. (Count)
system.cpu.commitStats0.committedInstType::SimdAddAcc            0      0.00%     53.32% # Class of committed instruction. (Count)
system.cpu.commitStats0.committedInstType::SimdAlu          243      0.00%     53.32% # Class of committed instruction. (Count)
system.cpu.commitStats0.committedInstType::SimdCmp            4      0.00%     53.32% # Class of committed instruction. (Count)
system.cpu.commitStats0.committedInstType::SimdCvt      3620082      0.02%     53.33% # Class of committed instruction. (Count)
system.cpu.commitStats0.committedInstType::SimdMisc     10869835      0.05%     53.39% # Class of committed instruction. (Count)
system.cpu.commitStats0.committedInstType::SimdMult     14480000      0.07%     53.46% # Class of committed instruction. (Count)
system.cpu.commitStats0.committedInstType::SimdMultAcc            0      0.00%     53.46% # Class of committed instruction. (Count)
system.cpu.commitStats0.committedInstType::SimdMatMultAcc            0      0.00%     53.46% # Class of committed instruction. (Count)
system.cpu.commitStats0.committedInstType::SimdShift     15146403      0.08%     53.54% # Class of committed instruction. (Count)
system.cpu.commitStats0.committedInstType::SimdShiftAcc            0      0.00%     53.54% # Class of committed instruction. (Count)
system.cpu.commitStats0.committedInstType::SimdDiv            0      0.00%     53.54% # Class of committed instruction. (Count)
system.cpu.commitStats0.committedInstType::SimdSqrt            0      0.00%     53.54% # Class of committed instruction. (Count)
system.cpu.commitStats0.committedInstType::SimdFloatAdd   1320000000      6.63%     60.17% # Class of committed instruction. (Count)
system.cpu.commitStats0.committedInstType::SimdFloatAlu            0      0.00%     60.17% # Class of committed instruction. (Count)
system.cpu.commitStats0.committedInstType::SimdFloatCmp            0      0.00%     60.17% # Class of committed instruction. (Count)
system.cpu.commitStats0.committedInstType::SimdFloatCvt      3620000      0.02%     60.18% # Class of committed instruction. (Count)
system.cpu.commitStats0.committedInstType::SimdFloatDiv      3620000      0.02%     60.20% # Class of committed instruction. (Count)
system.cpu.commitStats0.committedInstType::SimdFloatMisc            0      0.00%     60.20% # Class of committed instruction. (Count)
system.cpu.commitStats0.committedInstType::SimdFloatMult   2641100000     13.26%     73.46% # Class of committed instruction. (Count)
system.cpu.commitStats0.committedInstType::SimdFloatMultAcc            0      0.00%     73.46% # Class of committed instruction. (Count)
system.cpu.commitStats0.committedInstType::SimdFloatMatMultAcc            0      0.00%     73.46% # Class of committed instruction. (Count)
system.cpu.commitStats0.committedInstType::SimdFloatSqrt            0      0.00%     73.46% # Class of committed instruction. (Count)
system.cpu.commitStats0.committedInstType::SimdReduceAdd            0      0.00%     73.46% # Class of committed instruction. (Count)
system.cpu.commitStats0.committedInstType::SimdReduceAlu            0      0.00%     73.46% # Class of committed instruction. (Count)
system.cpu.commitStats0.committedInstType::SimdReduceCmp            0      0.00%     73.46% # Class of committed instruction. (Count)
system.cpu.commitStats0.committedInstType::SimdFloatReduceAdd            0      0.00%     73.46% # Class of committed instruction. (Count)
system.cpu.commitStats0.committedInstType::SimdFloatReduceCmp            0      0.00%     73.46% # Class of committed instruction. (Count)
system.cpu.commitStats0.committedInstType::SimdAes            0      0.00%     73.46% # Class of committed instruction. (Count)
system.cpu.commitStats0.committedInstType::SimdAesMix            0      0.00%     73.46% # Class of committed instruction. (Count)
system.cpu.commitStats0.committedInstType::SimdSha1Hash            0      0.00%     73.46% # Class of committed instruction. (Count)
system.cpu.commitStats0.committedInstType::SimdSha1Hash2            0      0.00%     73.46% # Class of committed instruction. (Count)
system.cpu.commitStats0.committedInstType::SimdSha256Hash            0      0.00%     73.46% # Class of committed instruction. (Count)
system.cpu.commitStats0.committedInstType::SimdSha256Hash2            0      0.00%     73.46% # Class of committed instruction. (Count)
system.cpu.commitStats0.committedInstType::SimdShaSigma2            0      0.00%     73.46% # Class of committed instruction. (Count)
system.cpu.commitStats0.committedInstType::SimdShaSigma3            0      0.00%     73.46% # Class of committed instruction. (Count)
system.cpu.commitStats0.committedInstType::SimdPredAlu            0      0.00%     73.46% # Class of committed instruction. (Count)
system.cpu.commitStats0.committedInstType::Matrix            0      0.00%     73.46% # Class of committed instruction. (Count)
system.cpu.commitStats0.committedInstType::MatrixMov            0      0.00%     73.46% # Class of committed instruction. (Count)
system.cpu.commitStats0.committedInstType::MatrixOP            0      0.00%     73.46% # Class of committed instruction. (Count)
system.cpu.commitStats0.committedInstType::MemRead        19798      0.00%     73.46% # Class of committed instruction. (Count)
system.cpu.commitStats0.committedInstType::MemWrite        10480      0.00%     73.46% # Class of committed instruction. (Count)
system.cpu.commitStats0.committedInstType::FloatMemRead   3961100144     19.89%     93.35% # Class of committed instruction. (Count)
system.cpu.commitStats0.committedInstType::FloatMemWrite   1324727587      6.65%    100.00% # Class of committed instruction. (Count)
system.cpu.commitStats0.committedInstType::IprAccess            0      0.00%    100.00% # Class of committed instruction. (Count)
system.cpu.commitStats0.committedInstType::InstPrefetch            0      0.00%    100.00% # Class of committed instruction. (Count)
system.cpu.commitStats0.committedInstType::VectorUnitStrideLoad            0      0.00%    100.00% # Class of committed instruction. (Count)
system.cpu.commitStats0.committedInstType::VectorUnitStrideStore            0      0.00%    100.00% # Class of committed instruction. (Count)
system.cpu.commitStats0.committedInstType::VectorUnitStrideMaskLoad            0      0.00%    100.00% # Class of committed instruction. (Count)
system.cpu.commitStats0.committedInstType::VectorUnitStrideMaskStore            0      0.00%    100.00% # Class of committed instruction. (Count)
system.cpu.commitStats0.committedInstType::VectorStridedLoad            0      0.00%    100.00% # Class of committed instruction. (Count)
system.cpu.commitStats0.committedInstType::VectorStridedStore            0      0.00%    100.00% # Class of committed instruction. (Count)
system.cpu.commitStats0.committedInstType::VectorIndexedLoad            0      0.00%    100.00% # Class of committed instruction. (Count)
system.cpu.commitStats0.committedInstType::VectorIndexedStore            0      0.00%    100.00% # Class of committed instruction. (Count)
system.cpu.commitStats0.committedInstType::VectorUnitStrideFaultOnlyFirstLoad            0      0.00%    100.00% # Class of committed instruction. (Count)
system.cpu.commitStats0.committedInstType::VectorWholeRegisterLoad            0      0.00%    100.00% # Class of committed instruction. (Count)
system.cpu.commitStats0.committedInstType::VectorWholeRegisterStore            0      0.00%    100.00% # Class of committed instruction. (Count)
system.cpu.commitStats0.committedInstType::VectorIntegerArith            0      0.00%    100.00% # Class of committed instruction. (Count)
system.cpu.commitStats0.committedInstType::VectorFloatArith            0      0.00%    100.00% # Class of committed instruction. (Count)
system.cpu.commitStats0.committedInstType::VectorFloatConvert            0      0.00%    100.00% # Class of committed instruction. (Count)
system.cpu.commitStats0.committedInstType::VectorIntegerReduce            0      0.00%    100.00% # Class of committed instruction. (Count)
system.cpu.commitStats0.committedInstType::VectorFloatReduce            0      0.00%    100.00% # Class of committed instruction. (Count)
system.cpu.commitStats0.committedInstType::VectorMisc            0      0.00%    100.00% # Class of committed instruction. (Count)
system.cpu.commitStats0.committedInstType::VectorIntegerExtension            0      0.00%    100.00% # Class of committed instruction. (Count)
system.cpu.commitStats0.committedInstType::VectorConfig            0      0.00%    100.00% # Class of committed instruction. (Count)
system.cpu.commitStats0.committedInstType::total  19917697209                       # Class of committed instruction. (Count)
system.cpu.commitStats0.committedControl::IsControl   1322693424                       # Class of control type instructions committed (Count)
system.cpu.commitStats0.committedControl::IsDirectControl   1322688760                       # Class of control type instructions committed (Count)
system.cpu.commitStats0.committedControl::IsIndirectControl         4664                       # Class of control type instructions committed (Count)
system.cpu.commitStats0.committedControl::IsCondControl   1322682936                       # Class of control type instructions committed (Count)
system.cpu.commitStats0.committedControl::IsUncondControl        10488                       # Class of control type instructions committed (Count)
system.cpu.commitStats0.committedControl::IsCall         2435                       # Class of control type instructions committed (Count)
system.cpu.commitStats0.committedControl::IsReturn         2430                       # Class of control type instructions committed (Count)
system.cpu.dcache.demandHits::cpu.data     5119997737                       # number of demand (read+write) hits (Count)
system.cpu.dcache.demandHits::total        5119997737                       # number of demand (read+write) hits (Count)
system.cpu.dcache.overallHits::cpu.data    5119997737                       # number of overall hits (Count)
system.cpu.dcache.overallHits::total       5119997737                       # number of overall hits (Count)
system.cpu.dcache.demandMisses::cpu.data    165853112                       # number of demand (read+write) misses (Count)
system.cpu.dcache.demandMisses::total       165853112                       # number of demand (read+write) misses (Count)
system.cpu.dcache.overallMisses::cpu.data    165853112                       # number of overall misses (Count)
system.cpu.dcache.overallMisses::total      165853112                       # number of overall misses (Count)
system.cpu.dcache.demandMissLatency::cpu.data 26720780548000                       # number of demand (read+write) miss ticks (Tick)
system.cpu.dcache.demandMissLatency::total 26720780548000                       # number of demand (read+write) miss ticks (Tick)
system.cpu.dcache.overallMissLatency::cpu.data 26720780548000                       # number of overall miss ticks (Tick)
system.cpu.dcache.overallMissLatency::total 26720780548000                       # number of overall miss ticks (Tick)
system.cpu.dcache.demandAccesses::cpu.data   5285850849                       # number of demand (read+write) accesses (Count)
system.cpu.dcache.demandAccesses::total    5285850849                       # number of demand (read+write) accesses (Count)
system.cpu.dcache.overallAccesses::cpu.data   5285850849                       # number of overall (read+write) accesses (Count)
system.cpu.dcache.overallAccesses::total   5285850849                       # number of overall (read+write) accesses (Count)
system.cpu.dcache.demandMissRate::cpu.data     0.031377                       # miss rate for demand accesses (Ratio)
system.cpu.dcache.demandMissRate::total      0.031377                       # miss rate for demand accesses (Ratio)
system.cpu.dcache.overallMissRate::cpu.data     0.031377                       # miss rate for overall accesses (Ratio)
system.cpu.dcache.overallMissRate::total     0.031377                       # miss rate for overall accesses (Ratio)
system.cpu.dcache.demandAvgMissLatency::cpu.data 161111.119507                       # average overall miss latency in ticks ((Tick/Count))
system.cpu.dcache.demandAvgMissLatency::total 161111.119507                       # average overall miss latency in ticks ((Tick/Count))
system.cpu.dcache.overallAvgMissLatency::cpu.data 161111.119507                       # average overall miss latency ((Tick/Count))
system.cpu.dcache.overallAvgMissLatency::total 161111.119507                       # average overall miss latency ((Tick/Count))
system.cpu.dcache.blockedCycles::no_mshrs            0                       # number of cycles access was blocked (Cycle)
system.cpu.dcache.blockedCycles::no_targets            0                       # number of cycles access was blocked (Cycle)
system.cpu.dcache.blockedCauses::no_mshrs            0                       # number of times access was blocked (Count)
system.cpu.dcache.blockedCauses::no_targets            0                       # number of times access was blocked (Count)
system.cpu.dcache.avgBlocked::no_mshrs            nan                       # average number of cycles each access was blocked ((Cycle/Count))
system.cpu.dcache.avgBlocked::no_targets          nan                       # average number of cycles each access was blocked ((Cycle/Count))
system.cpu.dcache.writebacks::writebacks       692811                       # number of writebacks (Count)
system.cpu.dcache.writebacks::total            692811                       # number of writebacks (Count)
system.cpu.dcache.demandMshrMisses::cpu.data    165853112                       # number of demand (read+write) MSHR misses (Count)
system.cpu.dcache.demandMshrMisses::total    165853112                       # number of demand (read+write) MSHR misses (Count)
system.cpu.dcache.overallMshrMisses::cpu.data    165853112                       # number of overall MSHR misses (Count)
system.cpu.dcache.overallMshrMisses::total    165853112                       # number of overall MSHR misses (Count)
system.cpu.dcache.demandMshrMissLatency::cpu.data 26389074324000                       # number of demand (read+write) MSHR miss ticks (Tick)
system.cpu.dcache.demandMshrMissLatency::total 26389074324000                       # number of demand (read+write) MSHR miss ticks (Tick)
system.cpu.dcache.overallMshrMissLatency::cpu.data 26389074324000                       # number of overall MSHR miss ticks (Tick)
system.cpu.dcache.overallMshrMissLatency::total 26389074324000                       # number of overall MSHR miss ticks (Tick)
system.cpu.dcache.demandMshrMissRate::cpu.data     0.031377                       # mshr miss ratio for demand accesses (Ratio)
system.cpu.dcache.demandMshrMissRate::total     0.031377                       # mshr miss ratio for demand accesses (Ratio)
system.cpu.dcache.overallMshrMissRate::cpu.data     0.031377                       # mshr miss ratio for overall accesses (Ratio)
system.cpu.dcache.overallMshrMissRate::total     0.031377                       # mshr miss ratio for overall accesses (Ratio)
system.cpu.dcache.demandAvgMshrMissLatency::cpu.data 159111.119507                       # average overall mshr miss latency ((Tick/Count))
system.cpu.dcache.demandAvgMshrMissLatency::total 159111.119507                       # average overall mshr miss latency ((Tick/Count))
system.cpu.dcache.overallAvgMshrMissLatency::cpu.data 159111.119507                       # average overall mshr miss latency ((Tick/Count))
system.cpu.dcache.overallAvgMshrMissLatency::total 159111.119507                       # average overall mshr miss latency ((Tick/Count))
system.cpu.dcache.replacements              165852092                       # number of replacements (Count)
system.cpu.dcache.LockedRMWReadReq.hits::cpu.data           38                       # number of LockedRMWReadReq hits (Count)
system.cpu.dcache.LockedRMWReadReq.hits::total           38                       # number of LockedRMWReadReq hits (Count)
system.cpu.dcache.LockedRMWReadReq.misses::cpu.data            4                       # number of LockedRMWReadReq misses (Count)
system.cpu.dcache.LockedRMWReadReq.misses::total            4                       # number of LockedRMWReadReq misses (Count)
system.cpu.dcache.LockedRMWReadReq.missLatency::cpu.data       870000                       # number of LockedRMWReadReq miss ticks (Tick)
system.cpu.dcache.LockedRMWReadReq.missLatency::total       870000                       # number of LockedRMWReadReq miss ticks (Tick)
system.cpu.dcache.LockedRMWReadReq.accesses::cpu.data           42                       # number of LockedRMWReadReq accesses(hits+misses) (Count)
system.cpu.dcache.LockedRMWReadReq.accesses::total           42                       # number of LockedRMWReadReq accesses(hits+misses) (Count)
system.cpu.dcache.LockedRMWReadReq.missRate::cpu.data     0.095238                       # miss rate for LockedRMWReadReq accesses (Ratio)
system.cpu.dcache.LockedRMWReadReq.missRate::total     0.095238                       # miss rate for LockedRMWReadReq accesses (Ratio)
system.cpu.dcache.LockedRMWReadReq.avgMissLatency::cpu.data       217500                       # average LockedRMWReadReq miss latency ((Tick/Count))
system.cpu.dcache.LockedRMWReadReq.avgMissLatency::total       217500                       # average LockedRMWReadReq miss latency ((Tick/Count))
system.cpu.dcache.LockedRMWReadReq.mshrMisses::cpu.data            4                       # number of LockedRMWReadReq MSHR misses (Count)
system.cpu.dcache.LockedRMWReadReq.mshrMisses::total            4                       # number of LockedRMWReadReq MSHR misses (Count)
system.cpu.dcache.LockedRMWReadReq.mshrMissLatency::cpu.data      1808000                       # number of LockedRMWReadReq MSHR miss ticks (Tick)
system.cpu.dcache.LockedRMWReadReq.mshrMissLatency::total      1808000                       # number of LockedRMWReadReq MSHR miss ticks (Tick)
system.cpu.dcache.LockedRMWReadReq.mshrMissRate::cpu.data     0.095238                       # mshr miss rate for LockedRMWReadReq accesses (Ratio)
system.cpu.dcache.LockedRMWReadReq.mshrMissRate::total     0.095238                       # mshr miss rate for LockedRMWReadReq accesses (Ratio)
system.cpu.dcache.LockedRMWReadReq.avgMshrMissLatency::cpu.data       452000                       # average LockedRMWReadReq mshr miss latency ((Tick/Count))
system.cpu.dcache.LockedRMWReadReq.avgMshrMissLatency::total       452000                       # average LockedRMWReadReq mshr miss latency ((Tick/Count))
system.cpu.dcache.LockedRMWWriteReq.hits::cpu.data           42                       # number of LockedRMWWriteReq hits (Count)
system.cpu.dcache.LockedRMWWriteReq.hits::total           42                       # number of LockedRMWWriteReq hits (Count)
system.cpu.dcache.LockedRMWWriteReq.accesses::cpu.data           42                       # number of LockedRMWWriteReq accesses(hits+misses) (Count)
system.cpu.dcache.LockedRMWWriteReq.accesses::total           42                       # number of LockedRMWWriteReq accesses(hits+misses) (Count)
system.cpu.dcache.ReadReq.hits::cpu.data   3795719442                       # number of ReadReq hits (Count)
system.cpu.dcache.ReadReq.hits::total      3795719442                       # number of ReadReq hits (Count)
system.cpu.dcache.ReadReq.misses::cpu.data    165400459                       # number of ReadReq misses (Count)
system.cpu.dcache.ReadReq.misses::total     165400459                       # number of ReadReq misses (Count)
system.cpu.dcache.ReadReq.missLatency::cpu.data 26646918434000                       # number of ReadReq miss ticks (Tick)
system.cpu.dcache.ReadReq.missLatency::total 26646918434000                       # number of ReadReq miss ticks (Tick)
system.cpu.dcache.ReadReq.accesses::cpu.data   3961119901                       # number of ReadReq accesses(hits+misses) (Count)
system.cpu.dcache.ReadReq.accesses::total   3961119901                       # number of ReadReq accesses(hits+misses) (Count)
system.cpu.dcache.ReadReq.missRate::cpu.data     0.041756                       # miss rate for ReadReq accesses (Ratio)
system.cpu.dcache.ReadReq.missRate::total     0.041756                       # miss rate for ReadReq accesses (Ratio)
system.cpu.dcache.ReadReq.avgMissLatency::cpu.data 161105.468480                       # average ReadReq miss latency ((Tick/Count))
system.cpu.dcache.ReadReq.avgMissLatency::total 161105.468480                       # average ReadReq miss latency ((Tick/Count))
system.cpu.dcache.ReadReq.mshrMisses::cpu.data    165400459                       # number of ReadReq MSHR misses (Count)
system.cpu.dcache.ReadReq.mshrMisses::total    165400459                       # number of ReadReq MSHR misses (Count)
system.cpu.dcache.ReadReq.mshrMissLatency::cpu.data 26316117516000                       # number of ReadReq MSHR miss ticks (Tick)
system.cpu.dcache.ReadReq.mshrMissLatency::total 26316117516000                       # number of ReadReq MSHR miss ticks (Tick)
system.cpu.dcache.ReadReq.mshrMissRate::cpu.data     0.041756                       # mshr miss rate for ReadReq accesses (Ratio)
system.cpu.dcache.ReadReq.mshrMissRate::total     0.041756                       # mshr miss rate for ReadReq accesses (Ratio)
system.cpu.dcache.ReadReq.avgMshrMissLatency::cpu.data 159105.468480                       # average ReadReq mshr miss latency ((Tick/Count))
system.cpu.dcache.ReadReq.avgMshrMissLatency::total 159105.468480                       # average ReadReq mshr miss latency ((Tick/Count))
system.cpu.dcache.WriteReq.hits::cpu.data   1324278295                       # number of WriteReq hits (Count)
system.cpu.dcache.WriteReq.hits::total     1324278295                       # number of WriteReq hits (Count)
system.cpu.dcache.WriteReq.misses::cpu.data       452653                       # number of WriteReq misses (Count)
system.cpu.dcache.WriteReq.misses::total       452653                       # number of WriteReq misses (Count)
system.cpu.dcache.WriteReq.missLatency::cpu.data  73862114000                       # number of WriteReq miss ticks (Tick)
system.cpu.dcache.WriteReq.missLatency::total  73862114000                       # number of WriteReq miss ticks (Tick)
system.cpu.dcache.WriteReq.accesses::cpu.data   1324730948                       # number of WriteReq accesses(hits+misses) (Count)
system.cpu.dcache.WriteReq.accesses::total   1324730948                       # number of WriteReq accesses(hits+misses) (Count)
system.cpu.dcache.WriteReq.missRate::cpu.data     0.000342                       # miss rate for WriteReq accesses (Ratio)
system.cpu.dcache.WriteReq.missRate::total     0.000342                       # miss rate for WriteReq accesses (Ratio)
system.cpu.dcache.WriteReq.avgMissLatency::cpu.data 163176.017833                       # average WriteReq miss latency ((Tick/Count))
system.cpu.dcache.WriteReq.avgMissLatency::total 163176.017833                       # average WriteReq miss latency ((Tick/Count))
system.cpu.dcache.WriteReq.mshrMisses::cpu.data       452653                       # number of WriteReq MSHR misses (Count)
system.cpu.dcache.WriteReq.mshrMisses::total       452653                       # number of WriteReq MSHR misses (Count)
system.cpu.dcache.WriteReq.mshrMissLatency::cpu.data  72956808000                       # number of WriteReq MSHR miss ticks (Tick)
system.cpu.dcache.WriteReq.mshrMissLatency::total  72956808000                       # number of WriteReq MSHR miss ticks (Tick)
system.cpu.dcache.WriteReq.mshrMissRate::cpu.data     0.000342                       # mshr miss rate for WriteReq accesses (Ratio)
system.cpu.dcache.WriteReq.mshrMissRate::total     0.000342                       # mshr miss rate for WriteReq accesses (Ratio)
system.cpu.dcache.WriteReq.avgMshrMissLatency::cpu.data 161176.017833                       # average WriteReq mshr miss latency ((Tick/Count))
system.cpu.dcache.WriteReq.avgMshrMissLatency::total 161176.017833                       # average WriteReq mshr miss latency ((Tick/Count))
system.cpu.dcache.power_state.pwrStateResidencyTicks::UNDEFINED 66164974123000                       # Cumulative time (in ticks) in various power states (Tick)
system.cpu.dcache.tags.tagsInUse          1023.993972                       # Average ticks per tags in use ((Tick/Count))
system.cpu.dcache.tags.totalRefs           5285850933                       # Total number of references to valid blocks. (Count)
system.cpu.dcache.tags.sampledRefs          165853116                       # Sample count of references to valid blocks. (Count)
system.cpu.dcache.tags.avgRefs              31.870676                       # Average number of references to valid blocks. ((Count/Count))
system.cpu.dcache.tags.warmupTick              344000                       # The tick when the warmup percentage was hit. (Tick)
system.cpu.dcache.tags.occupancies::cpu.data  1023.993972                       # Average occupied blocks per tick, per requestor ((Count/Tick))
system.cpu.dcache.tags.avgOccs::cpu.data     0.999994                       # Average percentage of cache occupancy ((Ratio/Tick))
system.cpu.dcache.tags.avgOccs::total        0.999994                       # Average percentage of cache occupancy ((Ratio/Tick))
system.cpu.dcache.tags.occupanciesTaskId::1024         1024                       # Occupied blocks per task id (Count)
system.cpu.dcache.tags.ageTaskId_1024::0           20                       # Occupied blocks per task id, per block age (Count)
system.cpu.dcache.tags.ageTaskId_1024::1          217                       # Occupied blocks per task id, per block age (Count)
system.cpu.dcache.tags.ageTaskId_1024::2          649                       # Occupied blocks per task id, per block age (Count)
system.cpu.dcache.tags.ageTaskId_1024::3            3                       # Occupied blocks per task id, per block age (Count)
system.cpu.dcache.tags.ageTaskId_1024::4          135                       # Occupied blocks per task id, per block age (Count)
system.cpu.dcache.tags.ratioOccsTaskId::1024            1                       # Ratio of occupied blocks and all blocks, per task id (Ratio)
system.cpu.dcache.tags.tagAccesses        10737554982                       # Number of tag accesses (Count)
system.cpu.dcache.tags.dataAccesses       10737554982                       # Number of data accesses (Count)
system.cpu.dcache.tags.power_state.pwrStateResidencyTicks::UNDEFINED 66164974123000                       # Cumulative time (in ticks) in various power states (Tick)
system.cpu.exec_context.thread_0.numMatAluAccesses            0                       # Number of matrix alu accesses (Count)
system.cpu.exec_context.thread_0.numCallsReturns         4865                       # Number of times a function call or return occured (Count)
system.cpu.exec_context.thread_0.numMatInsts            0                       # Number of matrix instructions (Count)
system.cpu.exec_context.thread_0.numIdleCycles     0.000999                       # Number of idle cycles (Cycle)
system.cpu.exec_context.thread_0.numBusyCycles 66164974122.999001                       # Number of busy cycles (Cycle)
system.cpu.exec_context.thread_0.notIdleFraction     1.000000                       # Percentage of non-idle cycles (Ratio)
system.cpu.exec_context.thread_0.idleFraction     0.000000                       # Percentage of idle cycles (Ratio)
system.cpu.executeStats0.numInsts                   0                       # Number of executed instructions (Count)
system.cpu.executeStats0.numNop                     0                       # Number of nop insts executed (Count)
system.cpu.executeStats0.numBranches                0                       # Number of branches executed (Count)
system.cpu.executeStats0.numLoadInsts               0                       # Number of load instructions executed (Count)
system.cpu.executeStats0.numStoreInsts     5285858009                       # Number of stores executed (Count)
system.cpu.executeStats0.instRate                   0                       # Inst execution rate ((Count/Cycle))
system.cpu.executeStats0.numFpAluAccesses  10656668832                       # Number of float alu accesses (Count)
system.cpu.executeStats0.numFpRegReads    13435226174                       # Number of times the floating registers were read (Count)
system.cpu.executeStats0.numFpRegWrites    9331941174                       # Number of times the floating registers were written (Count)
system.cpu.executeStats0.numIntAluAccesses  14545653709                       # Number of integer alu accesses (Count)
system.cpu.executeStats0.numIntRegReads   17186942537                       # Number of times the integer registers were read (Count)
system.cpu.executeStats0.numIntRegWrites   6614435416                       # Number of times the integer registers were written (Count)
system.cpu.executeStats0.numMemRefs        5285858009                       # Number of memory refs (Count)
system.cpu.executeStats0.numMiscRegReads   7931242783                       # Number of times the Misc registers were read (Count)
system.cpu.executeStats0.numVecAluAccesses            0                       # Number of vector alu accesses (Count)
system.cpu.executeStats0.numDiscardedOps            0                       # Number of ops (including micro ops) which were discarded before commit (Count)
system.cpu.fetchStats0.numInsts           10617797903                       # Number of instructions fetched (thread level) (Count)
system.cpu.fetchStats0.numOps             19917697209                       # Number of ops (including micro ops) fetched (thread level) (Count)
system.cpu.fetchStats0.fetchRate             0.160475                       # Number of inst fetches per cycle ((Count/Cycle))
system.cpu.fetchStats0.numBranches         1322693424                       # Number of branches fetched (Count)
system.cpu.fetchStats0.branchRate            0.019991                       # Number of branch fetches per cycle (Ratio)
system.cpu.fetchStats0.numFetchSuspends             0                       # Number of times Execute suspended instruction fetching (Count)
system.cpu.icache.demandHits::cpu.inst    14602051832                       # number of demand (read+write) hits (Count)
system.cpu.icache.demandHits::total       14602051832                       # number of demand (read+write) hits (Count)
system.cpu.icache.overallHits::cpu.inst   14602051832                       # number of overall hits (Count)
system.cpu.icache.overallHits::total      14602051832                       # number of overall hits (Count)
system.cpu.icache.demandMisses::cpu.inst          570                       # number of demand (read+write) misses (Count)
system.cpu.icache.demandMisses::total             570                       # number of demand (read+write) misses (Count)
system.cpu.icache.overallMisses::cpu.inst          570                       # number of overall misses (Count)
system.cpu.icache.overallMisses::total            570                       # number of overall misses (Count)
system.cpu.icache.demandMissLatency::cpu.inst     93410000                       # number of demand (read+write) miss ticks (Tick)
system.cpu.icache.demandMissLatency::total     93410000                       # number of demand (read+write) miss ticks (Tick)
system.cpu.icache.overallMissLatency::cpu.inst     93410000                       # number of overall miss ticks (Tick)
system.cpu.icache.overallMissLatency::total     93410000                       # number of overall miss ticks (Tick)
system.cpu.icache.demandAccesses::cpu.inst  14602052402                       # number of demand (read+write) accesses (Count)
system.cpu.icache.demandAccesses::total   14602052402                       # number of demand (read+write) accesses (Count)
system.cpu.icache.overallAccesses::cpu.inst  14602052402                       # number of overall (read+write) accesses (Count)
system.cpu.icache.overallAccesses::total  14602052402                       # number of overall (read+write) accesses (Count)
system.cpu.icache.demandMissRate::cpu.inst     0.000000                       # miss rate for demand accesses (Ratio)
system.cpu.icache.demandMissRate::total      0.000000                       # miss rate for demand accesses (Ratio)
system.cpu.icache.overallMissRate::cpu.inst     0.000000                       # miss rate for overall accesses (Ratio)
system.cpu.icache.overallMissRate::total     0.000000                       # miss rate for overall accesses (Ratio)
system.cpu.icache.demandAvgMissLatency::cpu.inst 163877.192982                       # average overall miss latency in ticks ((Tick/Count))
system.cpu.icache.demandAvgMissLatency::total 163877.192982                       # average overall miss latency in ticks ((Tick/Count))
system.cpu.icache.overallAvgMissLatency::cpu.inst 163877.192982                       # average overall miss latency ((Tick/Count))
system.cpu.icache.overallAvgMissLatency::total 163877.192982                       # average overall miss latency ((Tick/Count))
system.cpu.icache.blockedCycles::no_mshrs            0                       # number of cycles access was blocked (Cycle)
system.cpu.icache.blockedCycles::no_targets            0                       # number of cycles access was blocked (Cycle)
system.cpu.icache.blockedCauses::no_mshrs            0                       # number of times access was blocked (Count)
system.cpu.icache.blockedCauses::no_targets            0                       # number of times access was blocked (Count)
system.cpu.icache.avgBlocked::no_mshrs            nan                       # average number of cycles each access was blocked ((Cycle/Count))
system.cpu.icache.avgBlocked::no_targets          nan                       # average number of cycles each access was blocked ((Cycle/Count))
system.cpu.icache.demandMshrMisses::cpu.inst          570                       # number of demand (read+write) MSHR misses (Count)
system.cpu.icache.demandMshrMisses::total          570                       # number of demand (read+write) MSHR misses (Count)
system.cpu.icache.overallMshrMisses::cpu.inst          570                       # number of overall MSHR misses (Count)
system.cpu.icache.overallMshrMisses::total          570                       # number of overall MSHR misses (Count)
system.cpu.icache.demandMshrMissLatency::cpu.inst     92270000                       # number of demand (read+write) MSHR miss ticks (Tick)
system.cpu.icache.demandMshrMissLatency::total     92270000                       # number of demand (read+write) MSHR miss ticks (Tick)
system.cpu.icache.overallMshrMissLatency::cpu.inst     92270000                       # number of overall MSHR miss ticks (Tick)
system.cpu.icache.overallMshrMissLatency::total     92270000                       # number of overall MSHR miss ticks (Tick)
system.cpu.icache.demandMshrMissRate::cpu.inst     0.000000                       # mshr miss ratio for demand accesses (Ratio)
system.cpu.icache.demandMshrMissRate::total     0.000000                       # mshr miss ratio for demand accesses (Ratio)
system.cpu.icache.overallMshrMissRate::cpu.inst     0.000000                       # mshr miss ratio for overall accesses (Ratio)
system.cpu.icache.overallMshrMissRate::total     0.000000                       # mshr miss ratio for overall accesses (Ratio)
system.cpu.icache.demandAvgMshrMissLatency::cpu.inst 161877.192982                       # average overall mshr miss latency ((Tick/Count))
system.cpu.icache.demandAvgMshrMissLatency::total 161877.192982                       # average overall mshr miss latency ((Tick/Count))
system.cpu.icache.overallAvgMshrMissLatency::cpu.inst 161877.192982                       # average overall mshr miss latency ((Tick/Count))
system.cpu.icache.overallAvgMshrMissLatency::total 161877.192982                       # average overall mshr miss latency ((Tick/Count))
system.cpu.icache.replacements                    133                       # number of replacements (Count)
system.cpu.icache.ReadReq.hits::cpu.inst  14602051832                       # number of ReadReq hits (Count)
system.cpu.icache.ReadReq.hits::total     14602051832                       # number of ReadReq hits (Count)
system.cpu.icache.ReadReq.misses::cpu.inst          570                       # number of ReadReq misses (Count)
system.cpu.icache.ReadReq.misses::total           570                       # number of ReadReq misses (Count)
system.cpu.icache.ReadReq.missLatency::cpu.inst     93410000                       # number of ReadReq miss ticks (Tick)
system.cpu.icache.ReadReq.missLatency::total     93410000                       # number of ReadReq miss ticks (Tick)
system.cpu.icache.ReadReq.accesses::cpu.inst  14602052402                       # number of ReadReq accesses(hits+misses) (Count)
system.cpu.icache.ReadReq.accesses::total  14602052402                       # number of ReadReq accesses(hits+misses) (Count)
system.cpu.icache.ReadReq.missRate::cpu.inst     0.000000                       # miss rate for ReadReq accesses (Ratio)
system.cpu.icache.ReadReq.missRate::total     0.000000                       # miss rate for ReadReq accesses (Ratio)
system.cpu.icache.ReadReq.avgMissLatency::cpu.inst 163877.192982                       # average ReadReq miss latency ((Tick/Count))
system.cpu.icache.ReadReq.avgMissLatency::total 163877.192982                       # average ReadReq miss latency ((Tick/Count))
system.cpu.icache.ReadReq.mshrMisses::cpu.inst          570                       # number of ReadReq MSHR misses (Count)
system.cpu.icache.ReadReq.mshrMisses::total          570                       # number of ReadReq MSHR misses (Count)
system.cpu.icache.ReadReq.mshrMissLatency::cpu.inst     92270000                       # number of ReadReq MSHR miss ticks (Tick)
system.cpu.icache.ReadReq.mshrMissLatency::total     92270000                       # number of ReadReq MSHR miss ticks (Tick)
system.cpu.icache.ReadReq.mshrMissRate::cpu.inst     0.000000                       # mshr miss rate for ReadReq accesses (Ratio)
system.cpu.icache.ReadReq.mshrMissRate::total     0.000000                       # mshr miss rate for ReadReq accesses (Ratio)
system.cpu.icache.ReadReq.avgMshrMissLatency::cpu.inst 161877.192982                       # average ReadReq mshr miss latency ((Tick/Count))
system.cpu.icache.ReadReq.avgMshrMissLatency::total 161877.192982                       # average ReadReq mshr miss latency ((Tick/Count))
system.cpu.icache.power_state.pwrStateResidencyTicks::UNDEFINED 66164974123000                       # Cumulative time (in ticks) in various power states (Tick)
system.cpu.icache.tags.tagsInUse           408.982165                       # Average ticks per tags in use ((Tick/Count))
system.cpu.icache.tags.totalRefs           1717150514                       # Total number of references to valid blocks. (Count)
system.cpu.icache.tags.sampledRefs                570                       # Sample count of references to valid blocks. (Count)
system.cpu.icache.tags.avgRefs           3012544.761404                       # Average number of references to valid blocks. ((Count/Count))
system.cpu.icache.tags.warmupTick              167000                       # The tick when the warmup percentage was hit. (Tick)
system.cpu.icache.tags.occupancies::cpu.inst   408.982165                       # Average occupied blocks per tick, per requestor ((Count/Tick))
system.cpu.icache.tags.avgOccs::cpu.inst     0.798793                       # Average percentage of cache occupancy ((Ratio/Tick))
system.cpu.icache.tags.avgOccs::total        0.798793                       # Average percentage of cache occupancy ((Ratio/Tick))
system.cpu.icache.tags.occupanciesTaskId::1024          437                       # Occupied blocks per task id (Count)
system.cpu.icache.tags.ageTaskId_1024::0           32                       # Occupied blocks per task id, per block age (Count)
system.cpu.icache.tags.ageTaskId_1024::1           39                       # Occupied blocks per task id, per block age (Count)
system.cpu.icache.tags.ageTaskId_1024::4          366                       # Occupied blocks per task id, per block age (Count)
system.cpu.icache.tags.ratioOccsTaskId::1024     0.853516                       # Ratio of occupied blocks and all blocks, per task id (Ratio)
system.cpu.icache.tags.tagAccesses        29204105374                       # Number of tag accesses (Count)
system.cpu.icache.tags.dataAccesses       29204105374                       # Number of data accesses (Count)
system.cpu.icache.tags.power_state.pwrStateResidencyTicks::UNDEFINED 66164974123000                       # Cumulative time (in ticks) in various power states (Tick)
system.cpu.interrupts.clk_domain.clock          16000                       # Clock period in ticks (Tick)
system.cpu.mmu.dtb.rdAccesses              3961119944                       # TLB accesses on read requests (Count)
system.cpu.mmu.dtb.wrAccesses              1324738067                       # TLB accesses on write requests (Count)
system.cpu.mmu.dtb.rdMisses                   2583542                       # TLB misses on read requests (Count)
system.cpu.mmu.dtb.wrMisses                     14162                       # TLB misses on write requests (Count)
system.cpu.mmu.dtb.walker.power_state.pwrStateResidencyTicks::UNDEFINED 66164974123000                       # Cumulative time (in ticks) in various power states (Tick)
system.cpu.mmu.itb.rdAccesses                       0                       # TLB accesses on read requests (Count)
system.cpu.mmu.itb.wrAccesses             14602052402                       # TLB accesses on write requests (Count)
system.cpu.mmu.itb.rdMisses                         0                       # TLB misses on read requests (Count)
system.cpu.mmu.itb.wrMisses                        62                       # TLB misses on write requests (Count)
system.cpu.mmu.itb.walker.power_state.pwrStateResidencyTicks::UNDEFINED 66164974123000                       # Cumulative time (in ticks) in various power states (Tick)
system.cpu.power_state.pwrStateResidencyTicks::ON 66164974123000                       # Cumulative time (in ticks) in various power states (Tick)
system.cpu.thread_0.numInsts                        0                       # Number of Instructions committed (Count)
system.cpu.thread_0.numOps                          0                       # Number of Ops committed (Count)
system.cpu.thread_0.numMemRefs                      0                       # Number of Memory References (Count)
system.cpu.workload.numSyscalls                    20                       # Number of system calls (Count)
system.l3bus.transDist::ReadResp            165401029                       # Transaction distribution (Count)
system.l3bus.transDist::WritebackDirty        1282838                       # Transaction distribution (Count)
system.l3bus.transDist::CleanEvict          330465536                       # Transaction distribution (Count)
system.l3bus.transDist::ReadExReq              452657                       # Transaction distribution (Count)
system.l3bus.transDist::ReadExResp             452657                       # Transaction distribution (Count)
system.l3bus.transDist::ReadSharedReq       165401029                       # Transaction distribution (Count)
system.l3bus.pktCount_system.cpu.icache.mem_side_port::system.l3cache.cpu_side_port         1273                       # Packet count per connected requestor and responder (Count)
system.l3bus.pktCount_system.cpu.dcache.mem_side_port::system.l3cache.cpu_side_port    497558324                       # Packet count per connected requestor and responder (Count)
system.l3bus.pktCount::total                497559597                       # Packet count per connected requestor and responder (Count)
system.l3bus.pktSize_system.cpu.icache.mem_side_port::system.l3cache.cpu_side_port        36480                       # Cumulative packet size per connected requestor and responder (Byte)
system.l3bus.pktSize_system.cpu.dcache.mem_side_port::system.l3cache.cpu_side_port  10658939328                       # Cumulative packet size per connected requestor and responder (Byte)
system.l3bus.pktSize::total               10658975808                       # Cumulative packet size per connected requestor and responder (Byte)
system.l3bus.snoops                         165896149                       # Total snoops (Count)
system.l3bus.snoopTraffic                    37761728                       # Total snoop traffic (Byte)
system.l3bus.snoopFanout::samples           331749835                       # Request fanout histogram (Count)
system.l3bus.snoopFanout::mean               0.000517                       # Request fanout histogram (Count)
system.l3bus.snoopFanout::stdev              0.022736                       # Request fanout histogram (Count)
system.l3bus.snoopFanout::underflows                0      0.00%      0.00% # Request fanout histogram (Count)
system.l3bus.snoopFanout::0                 331578260     99.95%     99.95% # Request fanout histogram (Count)
system.l3bus.snoopFanout::1                    171575      0.05%    100.00% # Request fanout histogram (Count)
system.l3bus.snoopFanout::2                         0      0.00%    100.00% # Request fanout histogram (Count)
system.l3bus.snoopFanout::overflows                 0      0.00%    100.00% # Request fanout histogram (Count)
system.l3bus.snoopFanout::min_value                 0                       # Request fanout histogram (Count)
system.l3bus.snoopFanout::max_value                 1                       # Request fanout histogram (Count)
system.l3bus.snoopFanout::total             331749835                       # Request fanout histogram (Count)
system.l3bus.power_state.pwrStateResidencyTicks::UNDEFINED 66164974123000                       # Cumulative time (in ticks) in various power states (Tick)
system.l3bus.reqLayer0.occupancy         333091533000                       # Layer occupancy (ticks) (Tick)
system.l3bus.reqLayer0.utilization                0.0                       # Layer utilization (Ratio)
system.l3bus.respLayer0.occupancy             1710000                       # Layer occupancy (ticks) (Tick)
system.l3bus.respLayer0.utilization               0.0                       # Layer utilization (Ratio)
system.l3bus.respLayer1.occupancy        497559348000                       # Layer occupancy (ticks) (Tick)
system.l3bus.respLayer1.utilization               0.0                       # Layer utilization (Ratio)
system.l3bus.snoop_filter.totRequests       331705911                       # Total number of requests made to the snoop filter. (Count)
system.l3bus.snoop_filter.hitSingleRequests    165852225                       # Number of requests hitting in the snoop filter with a single holder of the requested data. (Count)
system.l3bus.snoop_filter.hitMultiRequests            0                       # Number of requests hitting in the snoop filter with multiple (>1) holders of the requested data. (Count)
system.l3bus.snoop_filter.totSnoops            171575                       # Total number of snoops made to the snoop filter. (Count)
system.l3bus.snoop_filter.hitSingleSnoops       171575                       # Number of snoops hitting in the snoop filter with a single holder of the requested data. (Count)
system.l3bus.snoop_filter.hitMultiSnoops            0                       # Number of snoops hitting in the snoop filter with multiple (>1) holders of the requested data. (Count)
system.l3cache.demandHits::cpu.data            112174                       # number of demand (read+write) hits (Count)
system.l3cache.demandHits::total               112174                       # number of demand (read+write) hits (Count)
system.l3cache.overallHits::cpu.data           112174                       # number of overall hits (Count)
system.l3cache.overallHits::total              112174                       # number of overall hits (Count)
system.l3cache.demandMisses::cpu.inst             570                       # number of demand (read+write) misses (Count)
system.l3cache.demandMisses::cpu.data       165740942                       # number of demand (read+write) misses (Count)
system.l3cache.demandMisses::total          165741512                       # number of demand (read+write) misses (Count)
system.l3cache.overallMisses::cpu.inst            570                       # number of overall misses (Count)
system.l3cache.overallMisses::cpu.data      165740942                       # number of overall misses (Count)
system.l3cache.overallMisses::total         165741512                       # number of overall misses (Count)
system.l3cache.demandMissLatency::cpu.inst     90560000                       # number of demand (read+write) miss ticks (Tick)
system.l3cache.demandMissLatency::cpu.data 25885350438000                       # number of demand (read+write) miss ticks (Tick)
system.l3cache.demandMissLatency::total  25885440998000                       # number of demand (read+write) miss ticks (Tick)
system.l3cache.overallMissLatency::cpu.inst     90560000                       # number of overall miss ticks (Tick)
system.l3cache.overallMissLatency::cpu.data 25885350438000                       # number of overall miss ticks (Tick)
system.l3cache.overallMissLatency::total 25885440998000                       # number of overall miss ticks (Tick)
system.l3cache.demandAccesses::cpu.inst           570                       # number of demand (read+write) accesses (Count)
system.l3cache.demandAccesses::cpu.data     165853116                       # number of demand (read+write) accesses (Count)
system.l3cache.demandAccesses::total        165853686                       # number of demand (read+write) accesses (Count)
system.l3cache.overallAccesses::cpu.inst          570                       # number of overall (read+write) accesses (Count)
system.l3cache.overallAccesses::cpu.data    165853116                       # number of overall (read+write) accesses (Count)
system.l3cache.overallAccesses::total       165853686                       # number of overall (read+write) accesses (Count)
system.l3cache.demandMissRate::cpu.inst             1                       # miss rate for demand accesses (Ratio)
system.l3cache.demandMissRate::cpu.data      0.999324                       # miss rate for demand accesses (Ratio)
system.l3cache.demandMissRate::total         0.999324                       # miss rate for demand accesses (Ratio)
system.l3cache.overallMissRate::cpu.inst            1                       # miss rate for overall accesses (Ratio)
system.l3cache.overallMissRate::cpu.data     0.999324                       # miss rate for overall accesses (Ratio)
system.l3cache.overallMissRate::total        0.999324                       # miss rate for overall accesses (Ratio)
system.l3cache.demandAvgMissLatency::cpu.inst 158877.192982                       # average overall miss latency in ticks ((Tick/Count))
system.l3cache.demandAvgMissLatency::cpu.data 156179.578357                       # average overall miss latency in ticks ((Tick/Count))
system.l3cache.demandAvgMissLatency::total 156179.587634                       # average overall miss latency in ticks ((Tick/Count))
system.l3cache.overallAvgMissLatency::cpu.inst 158877.192982                       # average overall miss latency ((Tick/Count))
system.l3cache.overallAvgMissLatency::cpu.data 156179.578357                       # average overall miss latency ((Tick/Count))
system.l3cache.overallAvgMissLatency::total 156179.587634                       # average overall miss latency ((Tick/Count))
system.l3cache.blockedCycles::no_mshrs              0                       # number of cycles access was blocked (Cycle)
system.l3cache.blockedCycles::no_targets            0                       # number of cycles access was blocked (Cycle)
system.l3cache.blockedCauses::no_mshrs              0                       # number of times access was blocked (Count)
system.l3cache.blockedCauses::no_targets            0                       # number of times access was blocked (Count)
system.l3cache.avgBlocked::no_mshrs               nan                       # average number of cycles each access was blocked ((Cycle/Count))
system.l3cache.avgBlocked::no_targets             nan                       # average number of cycles each access was blocked ((Cycle/Count))
system.l3cache.writebacks::writebacks          590027                       # number of writebacks (Count)
system.l3cache.writebacks::total               590027                       # number of writebacks (Count)
system.l3cache.demandMshrMisses::cpu.inst          570                       # number of demand (read+write) MSHR misses (Count)
system.l3cache.demandMshrMisses::cpu.data    165740942                       # number of demand (read+write) MSHR misses (Count)
system.l3cache.demandMshrMisses::total      165741512                       # number of demand (read+write) MSHR misses (Count)
system.l3cache.overallMshrMisses::cpu.inst          570                       # number of overall MSHR misses (Count)
system.l3cache.overallMshrMisses::cpu.data    165740942                       # number of overall MSHR misses (Count)
system.l3cache.overallMshrMisses::total     165741512                       # number of overall MSHR misses (Count)
system.l3cache.demandMshrMissLatency::cpu.inst     62060000                       # number of demand (read+write) MSHR miss ticks (Tick)
system.l3cache.demandMshrMissLatency::cpu.data 17598303338000                       # number of demand (read+write) MSHR miss ticks (Tick)
system.l3cache.demandMshrMissLatency::total 17598365398000                       # number of demand (read+write) MSHR miss ticks (Tick)
system.l3cache.overallMshrMissLatency::cpu.inst     62060000                       # number of overall MSHR miss ticks (Tick)
system.l3cache.overallMshrMissLatency::cpu.data 17598303338000                       # number of overall MSHR miss ticks (Tick)
system.l3cache.overallMshrMissLatency::total 17598365398000                       # number of overall MSHR miss ticks (Tick)
system.l3cache.demandMshrMissRate::cpu.inst            1                       # mshr miss ratio for demand accesses (Ratio)
system.l3cache.demandMshrMissRate::cpu.data     0.999324                       # mshr miss ratio for demand accesses (Ratio)
system.l3cache.demandMshrMissRate::total     0.999324                       # mshr miss ratio for demand accesses (Ratio)
system.l3cache.overallMshrMissRate::cpu.inst            1                       # mshr miss ratio for overall accesses (Ratio)
system.l3cache.overallMshrMissRate::cpu.data     0.999324                       # mshr miss ratio for overall accesses (Ratio)
system.l3cache.overallMshrMissRate::total     0.999324                       # mshr miss ratio for overall accesses (Ratio)
system.l3cache.demandAvgMshrMissLatency::cpu.inst 108877.192982                       # average overall mshr miss latency ((Tick/Count))
system.l3cache.demandAvgMshrMissLatency::cpu.data 106179.578357                       # average overall mshr miss latency ((Tick/Count))
system.l3cache.demandAvgMshrMissLatency::total 106179.587634                       # average overall mshr miss latency ((Tick/Count))
system.l3cache.overallAvgMshrMissLatency::cpu.inst 108877.192982                       # average overall mshr miss latency ((Tick/Count))
system.l3cache.overallAvgMshrMissLatency::cpu.data 106179.578357                       # average overall mshr miss latency ((Tick/Count))
system.l3cache.overallAvgMshrMissLatency::total 106179.587634                       # average overall mshr miss latency ((Tick/Count))
system.l3cache.replacements                 165896149                       # number of replacements (Count)
system.l3cache.CleanEvict.mshrMisses::writebacks           50                       # number of CleanEvict MSHR misses (Count)
system.l3cache.CleanEvict.mshrMisses::total           50                       # number of CleanEvict MSHR misses (Count)
system.l3cache.CleanEvict.mshrMissRate::writebacks          inf                       # mshr miss rate for CleanEvict accesses (Ratio)
system.l3cache.CleanEvict.mshrMissRate::total          inf                       # mshr miss rate for CleanEvict accesses (Ratio)
system.l3cache.ReadExReq.hits::cpu.data             5                       # number of ReadExReq hits (Count)
system.l3cache.ReadExReq.hits::total                5                       # number of ReadExReq hits (Count)
system.l3cache.ReadExReq.misses::cpu.data       452652                       # number of ReadExReq misses (Count)
system.l3cache.ReadExReq.misses::total         452652                       # number of ReadExReq misses (Count)
system.l3cache.ReadExReq.missLatency::cpu.data  71599444000                       # number of ReadExReq miss ticks (Tick)
system.l3cache.ReadExReq.missLatency::total  71599444000                       # number of ReadExReq miss ticks (Tick)
system.l3cache.ReadExReq.accesses::cpu.data       452657                       # number of ReadExReq accesses(hits+misses) (Count)
system.l3cache.ReadExReq.accesses::total       452657                       # number of ReadExReq accesses(hits+misses) (Count)
system.l3cache.ReadExReq.missRate::cpu.data     0.999989                       # miss rate for ReadExReq accesses (Ratio)
system.l3cache.ReadExReq.missRate::total     0.999989                       # miss rate for ReadExReq accesses (Ratio)
system.l3cache.ReadExReq.avgMissLatency::cpu.data 158177.681751                       # average ReadExReq miss latency ((Tick/Count))
system.l3cache.ReadExReq.avgMissLatency::total 158177.681751                       # average ReadExReq miss latency ((Tick/Count))
system.l3cache.ReadExReq.mshrMisses::cpu.data       452652                       # number of ReadExReq MSHR misses (Count)
system.l3cache.ReadExReq.mshrMisses::total       452652                       # number of ReadExReq MSHR misses (Count)
system.l3cache.ReadExReq.mshrMissLatency::cpu.data  48966844000                       # number of ReadExReq MSHR miss ticks (Tick)
system.l3cache.ReadExReq.mshrMissLatency::total  48966844000                       # number of ReadExReq MSHR miss ticks (Tick)
system.l3cache.ReadExReq.mshrMissRate::cpu.data     0.999989                       # mshr miss rate for ReadExReq accesses (Ratio)
system.l3cache.ReadExReq.mshrMissRate::total     0.999989                       # mshr miss rate for ReadExReq accesses (Ratio)
system.l3cache.ReadExReq.avgMshrMissLatency::cpu.data 108177.681751                       # average ReadExReq mshr miss latency ((Tick/Count))
system.l3cache.ReadExReq.avgMshrMissLatency::total 108177.681751                       # average ReadExReq mshr miss latency ((Tick/Count))
system.l3cache.ReadSharedReq.hits::cpu.data       112169                       # number of ReadSharedReq hits (Count)
system.l3cache.ReadSharedReq.hits::total       112169                       # number of ReadSharedReq hits (Count)
system.l3cache.ReadSharedReq.misses::cpu.inst          570                       # number of ReadSharedReq misses (Count)
system.l3cache.ReadSharedReq.misses::cpu.data    165288290                       # number of ReadSharedReq misses (Count)
system.l3cache.ReadSharedReq.misses::total    165288860                       # number of ReadSharedReq misses (Count)
system.l3cache.ReadSharedReq.missLatency::cpu.inst     90560000                       # number of ReadSharedReq miss ticks (Tick)
system.l3cache.ReadSharedReq.missLatency::cpu.data 25813750994000                       # number of ReadSharedReq miss ticks (Tick)
system.l3cache.ReadSharedReq.missLatency::total 25813841554000                       # number of ReadSharedReq miss ticks (Tick)
system.l3cache.ReadSharedReq.accesses::cpu.inst          570                       # number of ReadSharedReq accesses(hits+misses) (Count)
system.l3cache.ReadSharedReq.accesses::cpu.data    165400459                       # number of ReadSharedReq accesses(hits+misses) (Count)
system.l3cache.ReadSharedReq.accesses::total    165401029                       # number of ReadSharedReq accesses(hits+misses) (Count)
system.l3cache.ReadSharedReq.missRate::cpu.inst            1                       # miss rate for ReadSharedReq accesses (Ratio)
system.l3cache.ReadSharedReq.missRate::cpu.data     0.999322                       # miss rate for ReadSharedReq accesses (Ratio)
system.l3cache.ReadSharedReq.missRate::total     0.999322                       # miss rate for ReadSharedReq accesses (Ratio)
system.l3cache.ReadSharedReq.avgMissLatency::cpu.inst 158877.192982                       # average ReadSharedReq miss latency ((Tick/Count))
system.l3cache.ReadSharedReq.avgMissLatency::cpu.data 156174.106429                       # average ReadSharedReq miss latency ((Tick/Count))
system.l3cache.ReadSharedReq.avgMissLatency::total 156174.115751                       # average ReadSharedReq miss latency ((Tick/Count))
system.l3cache.ReadSharedReq.mshrMisses::cpu.inst          570                       # number of ReadSharedReq MSHR misses (Count)
system.l3cache.ReadSharedReq.mshrMisses::cpu.data    165288290                       # number of ReadSharedReq MSHR misses (Count)
system.l3cache.ReadSharedReq.mshrMisses::total    165288860                       # number of ReadSharedReq MSHR misses (Count)
system.l3cache.ReadSharedReq.mshrMissLatency::cpu.inst     62060000                       # number of ReadSharedReq MSHR miss ticks (Tick)
system.l3cache.ReadSharedReq.mshrMissLatency::cpu.data 17549336494000                       # number of ReadSharedReq MSHR miss ticks (Tick)
system.l3cache.ReadSharedReq.mshrMissLatency::total 17549398554000                       # number of ReadSharedReq MSHR miss ticks (Tick)
system.l3cache.ReadSharedReq.mshrMissRate::cpu.inst            1                       # mshr miss rate for ReadSharedReq accesses (Ratio)
system.l3cache.ReadSharedReq.mshrMissRate::cpu.data     0.999322                       # mshr miss rate for ReadSharedReq accesses (Ratio)
system.l3cache.ReadSharedReq.mshrMissRate::total     0.999322                       # mshr miss rate for ReadSharedReq accesses (Ratio)
system.l3cache.ReadSharedReq.avgMshrMissLatency::cpu.inst 108877.192982                       # average ReadSharedReq mshr miss latency ((Tick/Count))
system.l3cache.ReadSharedReq.avgMshrMissLatency::cpu.data 106174.106429                       # average ReadSharedReq mshr miss latency ((Tick/Count))
system.l3cache.ReadSharedReq.avgMshrMissLatency::total 106174.115751                       # average ReadSharedReq mshr miss latency ((Tick/Count))
system.l3cache.WritebackDirty.hits::writebacks       692811                       # number of WritebackDirty hits (Count)
system.l3cache.WritebackDirty.hits::total       692811                       # number of WritebackDirty hits (Count)
system.l3cache.WritebackDirty.accesses::writebacks       692811                       # number of WritebackDirty accesses(hits+misses) (Count)
system.l3cache.WritebackDirty.accesses::total       692811                       # number of WritebackDirty accesses(hits+misses) (Count)
system.l3cache.power_state.pwrStateResidencyTicks::UNDEFINED 66164974123000                       # Cumulative time (in ticks) in various power states (Tick)
system.l3cache.tags.tagsInUse            16383.037399                       # Average ticks per tags in use ((Tick/Count))
system.l3cache.tags.totalRefs               331705861                       # Total number of references to valid blocks. (Count)
system.l3cache.tags.sampledRefs             165912533                       # Sample count of references to valid blocks. (Count)
system.l3cache.tags.avgRefs                  1.999282                       # Average number of references to valid blocks. ((Count/Count))
system.l3cache.tags.warmupTick                 116000                       # The tick when the warmup percentage was hit. (Tick)
system.l3cache.tags.occupancies::writebacks    15.918577                       # Average occupied blocks per tick, per requestor ((Count/Tick))
system.l3cache.tags.occupancies::cpu.inst     0.056840                       # Average occupied blocks per tick, per requestor ((Count/Tick))
system.l3cache.tags.occupancies::cpu.data 16367.061984                       # Average occupied blocks per tick, per requestor ((Count/Tick))
system.l3cache.tags.avgOccs::writebacks      0.000972                       # Average percentage of cache occupancy ((Ratio/Tick))
system.l3cache.tags.avgOccs::cpu.inst        0.000003                       # Average percentage of cache occupancy ((Ratio/Tick))
system.l3cache.tags.avgOccs::cpu.data        0.998966                       # Average percentage of cache occupancy ((Ratio/Tick))
system.l3cache.tags.avgOccs::total           0.999941                       # Average percentage of cache occupancy ((Ratio/Tick))
system.l3cache.tags.occupanciesTaskId::1024        16384                       # Occupied blocks per task id (Count)
system.l3cache.tags.ageTaskId_1024::0              52                       # Occupied blocks per task id, per block age (Count)
system.l3cache.tags.ageTaskId_1024::1             258                       # Occupied blocks per task id, per block age (Count)
system.l3cache.tags.ageTaskId_1024::2            2255                       # Occupied blocks per task id, per block age (Count)
system.l3cache.tags.ageTaskId_1024::3           13819                       # Occupied blocks per task id, per block age (Count)
system.l3cache.tags.ratioOccsTaskId::1024            1                       # Ratio of occupied blocks and all blocks, per task id (Ratio)
system.l3cache.tags.tagAccesses            5473207109                       # Number of tag accesses (Count)
system.l3cache.tags.dataAccesses           5473207109                       # Number of data accesses (Count)
system.l3cache.tags.power_state.pwrStateResidencyTicks::UNDEFINED 66164974123000                       # Cumulative time (in ticks) in various power states (Tick)
system.mem_ctrl.avgPriority_writebacks::samples    590027.00                       # Average QoS priority value for accepted requests (Count)
system.mem_ctrl.avgPriority_cpu.inst::samples       570.00                       # Average QoS priority value for accepted requests (Count)
system.mem_ctrl.avgPriority_cpu.data::samples 165740919.00                       # Average QoS priority value for accepted requests (Count)
system.mem_ctrl.priorityMinLatency       0.000000018750                       # per QoS priority minimum request to response latency (Second)
system.mem_ctrl.priorityMaxLatency       0.132783308500                       # per QoS priority maximum request to response latency (Second)
system.mem_ctrl.numReadWriteTurnArounds         32784                       # Number of turnarounds from READ to WRITE (Count)
system.mem_ctrl.numWriteReadTurnArounds         32784                       # Number of turnarounds from WRITE to READ (Count)
system.mem_ctrl.numStayReadState            349066822                       # Number of times bus staying in READ state (Count)
system.mem_ctrl.numStayWriteState              558432                       # Number of times bus staying in WRITE state (Count)
system.mem_ctrl.readReqs                    165741512                       # Number of read requests accepted (Count)
system.mem_ctrl.writeReqs                      590027                       # Number of write requests accepted (Count)
system.mem_ctrl.readBursts                  165741512                       # Number of controller read bursts, including those serviced by the write queue (Count)
system.mem_ctrl.writeBursts                    590027                       # Number of controller write bursts, including those merged in the write queue (Count)
system.mem_ctrl.servicedByWrQ                      23                       # Number of controller read bursts serviced by the write queue (Count)
system.mem_ctrl.mergedWrBursts                      0                       # Number of controller write bursts merged with an existing one (Count)
system.mem_ctrl.neitherReadNorWriteReqs             0                       # Number of requests that are neither read nor write (Count)
system.mem_ctrl.avgRdQLen                        1.00                       # Average read queue length when enqueuing ((Count/Tick))
system.mem_ctrl.avgWrQLen                       24.46                       # Average write queue length when enqueuing ((Count/Tick))
system.mem_ctrl.numRdRetry                          0                       # Number of times read queue was full causing retry (Count)
system.mem_ctrl.numWrRetry                          0                       # Number of times write queue was full causing retry (Count)
system.mem_ctrl.readPktSize::0                      0                       # Read request sizes (log2) (Count)
system.mem_ctrl.readPktSize::1                      0                       # Read request sizes (log2) (Count)
system.mem_ctrl.readPktSize::2                      0                       # Read request sizes (log2) (Count)
system.mem_ctrl.readPktSize::3                      0                       # Read request sizes (log2) (Count)
system.mem_ctrl.readPktSize::4                      0                       # Read request sizes (log2) (Count)
system.mem_ctrl.readPktSize::5                      0                       # Read request sizes (log2) (Count)
system.mem_ctrl.readPktSize::6              165741512                       # Read request sizes (log2) (Count)
system.mem_ctrl.writePktSize::0                     0                       # Write request sizes (log2) (Count)
system.mem_ctrl.writePktSize::1                     0                       # Write request sizes (log2) (Count)
system.mem_ctrl.writePktSize::2                     0                       # Write request sizes (log2) (Count)
system.mem_ctrl.writePktSize::3                     0                       # Write request sizes (log2) (Count)
system.mem_ctrl.writePktSize::4                     0                       # Write request sizes (log2) (Count)
system.mem_ctrl.writePktSize::5                     0                       # Write request sizes (log2) (Count)
system.mem_ctrl.writePktSize::6                590027                       # Write request sizes (log2) (Count)
system.mem_ctrl.rdQLenPdf::0                165741489                       # What read queue length does an incoming req see (Count)
system.mem_ctrl.rdQLenPdf::1                        0                       # What read queue length does an incoming req see (Count)
system.mem_ctrl.rdQLenPdf::2                        0                       # What read queue length does an incoming req see (Count)
system.mem_ctrl.rdQLenPdf::3                        0                       # What read queue length does an incoming req see (Count)
system.mem_ctrl.rdQLenPdf::4                        0                       # What read queue length does an incoming req see (Count)
system.mem_ctrl.rdQLenPdf::5                        0                       # What read queue length does an incoming req see (Count)
system.mem_ctrl.rdQLenPdf::6                        0                       # What read queue length does an incoming req see (Count)
system.mem_ctrl.rdQLenPdf::7                        0                       # What read queue length does an incoming req see (Count)
system.mem_ctrl.rdQLenPdf::8                        0                       # What read queue length does an incoming req see (Count)
system.mem_ctrl.rdQLenPdf::9                        0                       # What read queue length does an incoming req see (Count)
system.mem_ctrl.rdQLenPdf::10                       0                       # What read queue length does an incoming req see (Count)
system.mem_ctrl.rdQLenPdf::11                       0                       # What read queue length does an incoming req see (Count)
system.mem_ctrl.rdQLenPdf::12                       0                       # What read queue length does an incoming req see (Count)
system.mem_ctrl.rdQLenPdf::13                       0                       # What read queue length does an incoming req see (Count)
system.mem_ctrl.rdQLenPdf::14                       0                       # What read queue length does an incoming req see (Count)
system.mem_ctrl.rdQLenPdf::15                       0                       # What read queue length does an incoming req see (Count)
system.mem_ctrl.rdQLenPdf::16                       0                       # What read queue length does an incoming req see (Count)
system.mem_ctrl.rdQLenPdf::17                       0                       # What read queue length does an incoming req see (Count)
system.mem_ctrl.rdQLenPdf::18                       0                       # What read queue length does an incoming req see (Count)
system.mem_ctrl.rdQLenPdf::19                       0                       # What read queue length does an incoming req see (Count)
system.mem_ctrl.rdQLenPdf::20                       0                       # What read queue length does an incoming req see (Count)
system.mem_ctrl.rdQLenPdf::21                       0                       # What read queue length does an incoming req see (Count)
system.mem_ctrl.rdQLenPdf::22                       0                       # What read queue length does an incoming req see (Count)
system.mem_ctrl.rdQLenPdf::23                       0                       # What read queue length does an incoming req see (Count)
system.mem_ctrl.rdQLenPdf::24                       0                       # What read queue length does an incoming req see (Count)
[...]
system.mem_ctrl.dram.bytesWritten::total     37761728                       # Number of bytes written to this memory (Byte)
system.mem_ctrl.dram.numReads::cpu.inst           570                       # Number of read requests responded to by this memory (Count)
system.mem_ctrl.dram.numReads::cpu.data     165740942                       # Number of read requests responded to by this memory (Count)
system.mem_ctrl.dram.numReads::total        165741512                       # Number of read requests responded to by this memory (Count)
system.mem_ctrl.dram.numWrites::writebacks       590027                       # Number of write requests responded to by this memory (Count)
system.mem_ctrl.dram.numWrites::total          590027                       # Number of write requests responded to by this memory (Count)
system.mem_ctrl.dram.bwRead::cpu.inst             551                       # Total read bandwidth from this memory ((Byte/Second))
system.mem_ctrl.dram.bwRead::cpu.data       160317758                       # Total read bandwidth from this memory ((Byte/Second))
system.mem_ctrl.dram.bwRead::total          160318309                       # Total read bandwidth from this memory ((Byte/Second))
system.mem_ctrl.dram.bwInstRead::cpu.inst          551                       # Instruction read bandwidth from this memory ((Byte/Second))
system.mem_ctrl.dram.bwInstRead::total            551                       # Instruction read bandwidth from this memory ((Byte/Second))
system.mem_ctrl.dram.bwWrite::writebacks       570721                       # Write bandwidth from this memory ((Byte/Second))
system.mem_ctrl.dram.bwWrite::total            570721                       # Write bandwidth from this memory ((Byte/Second))
system.mem_ctrl.dram.bwTotal::writebacks       570721                       # Total bandwidth to/from this memory ((Byte/Second))
system.mem_ctrl.dram.bwTotal::cpu.inst            551                       # Total bandwidth to/from this memory ((Byte/Second))
system.mem_ctrl.dram.bwTotal::cpu.data      160317758                       # Total bandwidth to/from this memory ((Byte/Second))
system.mem_ctrl.dram.bwTotal::total         160889030                       # Total bandwidth to/from this memory ((Byte/Second))
system.mem_ctrl.dram.readBursts             165741489                       # Number of DRAM read bursts (Count)
system.mem_ctrl.dram.writeBursts               590010                       # Number of DRAM write bursts (Count)
system.mem_ctrl.dram.perBankRdBursts::0      10358233                       # Per bank write bursts (Count)
system.mem_ctrl.dram.perBankRdBursts::1      10286538                       # Per bank write bursts (Count)
system.mem_ctrl.dram.perBankRdBursts::2      10286512                       # Per bank write bursts (Count)
system.mem_ctrl.dram.perBankRdBursts::3      10286411                       # Per bank write bursts (Count)
system.mem_ctrl.dram.perBankRdBursts::4      10286463                       # Per bank write bursts (Count)
system.mem_ctrl.dram.perBankRdBursts::5      10286477                       # Per bank write bursts (Count)
system.mem_ctrl.dram.perBankRdBursts::6      10286376                       # Per bank write bursts (Count)
system.mem_ctrl.dram.perBankRdBursts::7      10350246                       # Per bank write bursts (Count)
system.mem_ctrl.dram.perBankRdBursts::8      10414278                       # Per bank write bursts (Count)
system.mem_ctrl.dram.perBankRdBursts::9      10414306                       # Per bank write bursts (Count)
system.mem_ctrl.dram.perBankRdBursts::10     10414262                       # Per bank write bursts (Count)
system.mem_ctrl.dram.perBankRdBursts::11     10414239                       # Per bank write bursts (Count)
system.mem_ctrl.dram.perBankRdBursts::12     10414278                       # Per bank write bursts (Count)
system.mem_ctrl.dram.perBankRdBursts::13     10414279                       # Per bank write bursts (Count)
system.mem_ctrl.dram.perBankRdBursts::14     10414294                       # Per bank write bursts (Count)
system.mem_ctrl.dram.perBankRdBursts::15     10414297                       # Per bank write bursts (Count)
system.mem_ctrl.dram.perBankWrBursts::0         36812                       # Per bank write bursts (Count)
system.mem_ctrl.dram.perBankWrBursts::1         36991                       # Per bank write bursts (Count)
system.mem_ctrl.dram.perBankWrBursts::2         36866                       # Per bank write bursts (Count)
system.mem_ctrl.dram.perBankWrBursts::3         36828                       # Per bank write bursts (Count)
system.mem_ctrl.dram.perBankWrBursts::4         36864                       # Per bank write bursts (Count)
system.mem_ctrl.dram.perBankWrBursts::5         36864                       # Per bank write bursts (Count)
system.mem_ctrl.dram.perBankWrBursts::6         36864                       # Per bank write bursts (Count)
system.mem_ctrl.dram.perBankWrBursts::7         36848                       # Per bank write bursts (Count)
system.mem_ctrl.dram.perBankWrBursts::8         36878                       # Per bank write bursts (Count)
system.mem_ctrl.dram.perBankWrBursts::9         36922                       # Per bank write bursts (Count)
system.mem_ctrl.dram.perBankWrBursts::10        36866                       # Per bank write bursts (Count)
system.mem_ctrl.dram.perBankWrBursts::11        36864                       # Per bank write bursts (Count)
system.mem_ctrl.dram.perBankWrBursts::12        36884                       # Per bank write bursts (Count)
system.mem_ctrl.dram.perBankWrBursts::13        36878                       # Per bank write bursts (Count)
system.mem_ctrl.dram.perBankWrBursts::14        36885                       # Per bank write bursts (Count)
system.mem_ctrl.dram.perBankWrBursts::15        36896                       # Per bank write bursts (Count)
system.mem_ctrl.dram.totQLat             1020370240500                       # Total ticks spent queuing (Tick)
system.mem_ctrl.dram.totBusLat           828707445000                       # Total ticks spent in databus transfers (Tick)
system.mem_ctrl.dram.totMemAccLat        4128023159250                       # Total ticks spent from burst creation until serviced by the DRAM (Tick)
system.mem_ctrl.dram.avgQLat                  6156.40                       # Average queueing delay per DRAM burst ((Tick/Count))
system.mem_ctrl.dram.avgBusLat                5000.00                       # Average bus latency per DRAM burst ((Tick/Count))
system.mem_ctrl.dram.avgMemAccLat            24906.40                       # Average memory access latency per DRAM burst ((Tick/Count))
system.mem_ctrl.dram.readRowHits            148261492                       # Number of row buffer hits during reads (Count)
system.mem_ctrl.dram.writeRowHits              523857                       # Number of row buffer hits during writes (Count)
system.mem_ctrl.dram.readRowHitRate             89.45                       # Row buffer hit rate for reads (Ratio)
system.mem_ctrl.dram.writeRowHitRate            88.79                       # Row buffer hit rate for writes (Ratio)
system.mem_ctrl.dram.bytesPerActivate::samples     17546148                       # Bytes accessed per row activation (Byte)
system.mem_ctrl.dram.bytesPerActivate::mean   606.698162                       # Bytes accessed per row activation (Byte)
system.mem_ctrl.dram.bytesPerActivate::gmean   455.322777                       # Bytes accessed per row activation (Byte)
system.mem_ctrl.dram.bytesPerActivate::stdev   394.245729                       # Bytes accessed per row activation (Byte)
system.mem_ctrl.dram.bytesPerActivate::0-127       439167      2.50%      2.50% # Bytes accessed per row activation (Byte)
system.mem_ctrl.dram.bytesPerActivate::128-255      4152371     23.67%     26.17% # Bytes accessed per row activation (Byte)
system.mem_ctrl.dram.bytesPerActivate::256-383      3843187     21.90%     48.07% # Bytes accessed per row activation (Byte)
system.mem_ctrl.dram.bytesPerActivate::384-511       281338      1.60%     49.68% # Bytes accessed per row activation (Byte)
system.mem_ctrl.dram.bytesPerActivate::512-639       263422      1.50%     51.18% # Bytes accessed per row activation (Byte)
system.mem_ctrl.dram.bytesPerActivate::640-767       281198      1.60%     52.78% # Bytes accessed per row activation (Byte)
system.mem_ctrl.dram.bytesPerActivate::768-895       276592      1.58%     54.36% # Bytes accessed per row activation (Byte)
system.mem_ctrl.dram.bytesPerActivate::896-1023       269107      1.53%     55.89% # Bytes accessed per row activation (Byte)
system.mem_ctrl.dram.bytesPerActivate::1024-1151      7739766     44.11%    100.00% # Bytes accessed per row activation (Byte)
system.mem_ctrl.dram.bytesPerActivate::total     17546148                       # Bytes accessed per row activation (Byte)
system.mem_ctrl.dram.bytesRead            10607455296                       # Total bytes read (Byte)
system.mem_ctrl.dram.bytesWritten            37760640                       # Total bytes written (Byte)
system.mem_ctrl.dram.avgRdBW               160.318287                       # Average DRAM read bandwidth in MiBytes/s ((Byte/Second))
system.mem_ctrl.dram.avgWrBW                 0.570704                       # Average DRAM write bandwidth in MiBytes/s ((Byte/Second))
system.mem_ctrl.dram.peakBW                  12800.00                       # Theoretical peak bandwidth in MiByte/s ((Byte/Second))
system.mem_ctrl.dram.busUtil                     1.26                       # Data bus utilization in percentage (Ratio)
system.mem_ctrl.dram.busUtilRead                 1.25                       # Data bus utilization in percentage for reads (Ratio)
system.mem_ctrl.dram.busUtilWrite                0.00                       # Data bus utilization in percentage for writes (Ratio)
system.mem_ctrl.dram.pageHitRate                89.45                       # Row buffer hit rate, read and write combined (Ratio)
system.mem_ctrl.dram.power_state.pwrStateResidencyTicks::UNDEFINED 66164974123000                       # Cumulative time (in ticks) in various power states (Tick)
system.mem_ctrl.dram.rank0.actEnergy      62316663360                       # Energy for activate commands per rank (pJ) (Joule)
system.mem_ctrl.dram.rank0.preEnergy      33122092080                       # Energy for precharge commands per rank (pJ) (Joule)
system.mem_ctrl.dram.rank0.readEnergy    588530607840                       # Energy for read commands per rank (pJ) (Joule)
system.mem_ctrl.dram.rank0.writeEnergy     1539571140                       # Energy for write commands per rank (pJ) (Joule)
system.mem_ctrl.dram.rank0.refreshEnergy 5223006659520.000977                       # Energy for refresh commands per rank (pJ) (Joule)
system.mem_ctrl.dram.rank0.actBackEnergy 14872733823600                       # Energy for active background per rank (pJ) (Joule)
system.mem_ctrl.dram.rank0.preBackEnergy 12882942633120                       # Energy for precharge background per rank (pJ) (Joule)
system.mem_ctrl.dram.rank0.actPowerDownEnergy            0                       # Energy for active power-down per rank (pJ) (Joule)
system.mem_ctrl.dram.rank0.prePowerDownEnergy            0                       # Energy for precharge power-down per rank (pJ) (Joule)
system.mem_ctrl.dram.rank0.selfRefreshEnergy            0                       # Energy for self refresh per rank (pJ) (Joule)
system.mem_ctrl.dram.rank0.totalEnergy   33664192050660                       # Total energy per rank (pJ) (Joule)
system.mem_ctrl.dram.rank0.averagePower    508.791736                       # Core power per rank (mW) (Watt)
system.mem_ctrl.dram.rank0.totalIdleTime            0                       # Total Idle time Per DRAM Rank (Tick)
system.mem_ctrl.dram.rank0.pwrStateTime::IDLE 33320263533000                       # Time in different power states (Tick)
system.mem_ctrl.dram.rank0.pwrStateTime::REF 2209393680000                       # Time in different power states (Tick)
system.mem_ctrl.dram.rank0.pwrStateTime::SREF            0                       # Time in different power states (Tick)
system.mem_ctrl.dram.rank0.pwrStateTime::PRE_PDN            0                       # Time in different power states (Tick)
system.mem_ctrl.dram.rank0.pwrStateTime::ACT 30635316910000                       # Time in different power states (Tick)
system.mem_ctrl.dram.rank0.pwrStateTime::ACT_PDN            0                       # Time in different power states (Tick)
system.mem_ctrl.dram.rank1.actEnergy      62962847640                       # Energy for activate commands per rank (pJ) (Joule)
system.mem_ctrl.dram.rank1.preEnergy      33465539580                       # Energy for precharge commands per rank (pJ) (Joule)
system.mem_ctrl.dram.rank1.readEnergy    594863623620                       # Energy for read commands per rank (pJ) (Joule)
system.mem_ctrl.dram.rank1.writeEnergy     1540281060                       # Energy for write commands per rank (pJ) (Joule)
system.mem_ctrl.dram.rank1.refreshEnergy 5223006659520.000977                       # Energy for refresh commands per rank (pJ) (Joule)
system.mem_ctrl.dram.rank1.actBackEnergy 15024331090860                       # Energy for active background per rank (pJ) (Joule)
system.mem_ctrl.dram.rank1.preBackEnergy 12755281776480                       # Energy for precharge background per rank (pJ) (Joule)
system.mem_ctrl.dram.rank1.actPowerDownEnergy            0                       # Energy for active power-down per rank (pJ) (Joule)
system.mem_ctrl.dram.rank1.prePowerDownEnergy            0                       # Energy for precharge power-down per rank (pJ) (Joule)
system.mem_ctrl.dram.rank1.selfRefreshEnergy            0                       # Energy for self refresh per rank (pJ) (Joule)
system.mem_ctrl.dram.rank1.totalEnergy   33695451818760                       # Total energy per rank (pJ) (Joule)
system.mem_ctrl.dram.rank1.averagePower    509.264188                       # Core power per rank (mW) (Watt)
system.mem_ctrl.dram.rank1.totalIdleTime            0                       # Total Idle time Per DRAM Rank (Tick)
system.mem_ctrl.dram.rank1.pwrStateTime::IDLE 32986623824500                       # Time in different power states (Tick)
system.mem_ctrl.dram.rank1.pwrStateTime::REF 2209393680000                       # Time in different power states (Tick)
system.mem_ctrl.dram.rank1.pwrStateTime::SREF            0                       # Time in different power states (Tick)
system.mem_ctrl.dram.rank1.pwrStateTime::PRE_PDN            0                       # Time in different power states (Tick)
system.mem_ctrl.dram.rank1.pwrStateTime::ACT 30968956618500                       # Time in different power states (Tick)
system.mem_ctrl.dram.rank1.pwrStateTime::ACT_PDN            0                       # Time in different power states (Tick)
system.mem_ctrl.power_state.pwrStateResidencyTicks::UNDEFINED 66164974123000                       # Cumulative time (in ticks) in various power states (Tick)
system.membus.transDist::ReadResp           165288860                       # Transaction distribution (Count)
system.membus.transDist::WritebackDirty        590027                       # Transaction distribution (Count)
system.membus.transDist::CleanEvict         165134596                       # Transaction distribution (Count)
system.membus.transDist::ReadExReq             452652                       # Transaction distribution (Count)
system.membus.transDist::ReadExResp            452652                       # Transaction distribution (Count)
system.membus.transDist::ReadSharedReq      165288860                       # Transaction distribution (Count)
system.membus.pktCount_system.l3cache.mem_side_port::system.mem_ctrl.port    497207647                       # Packet count per connected requestor and responder (Count)
system.membus.pktCount_system.l3cache.mem_side_port::total    497207647                       # Packet count per connected requestor and responder (Count)
system.membus.pktCount::total               497207647                       # Packet count per connected requestor and responder (Count)
system.membus.pktSize_system.l3cache.mem_side_port::system.mem_ctrl.port  10645218496                       # Cumulative packet size per connected requestor and responder (Byte)
system.membus.pktSize_system.l3cache.mem_side_port::total  10645218496                       # Cumulative packet size per connected requestor and responder (Byte)
system.membus.pktSize::total              10645218496                       # Cumulative packet size per connected requestor and responder (Byte)
system.membus.snoops                                0                       # Total snoops (Count)
system.membus.snoopTraffic                          0                       # Total snoop traffic (Byte)
system.membus.snoopFanout::samples          165741512                       # Request fanout histogram (Count)
system.membus.snoopFanout::mean                     0                       # Request fanout histogram (Count)
system.membus.snoopFanout::stdev                    0                       # Request fanout histogram (Count)
system.membus.snoopFanout::underflows               0      0.00%      0.00% # Request fanout histogram (Count)
system.membus.snoopFanout::0                165741512    100.00%    100.00% # Request fanout histogram (Count)
system.membus.snoopFanout::1                        0      0.00%    100.00% # Request fanout histogram (Count)
system.membus.snoopFanout::overflows                0      0.00%    100.00% # Request fanout histogram (Count)
system.membus.snoopFanout::min_value                0                       # Request fanout histogram (Count)
system.membus.snoopFanout::max_value                0                       # Request fanout histogram (Count)
system.membus.snoopFanout::total            165741512                       # Request fanout histogram (Count)
system.membus.power_state.pwrStateResidencyTicks::UNDEFINED 66164974123000                       # Cumulative time (in ticks) in various power states (Tick)
system.membus.reqLayer2.occupancy        333826243000                       # Layer occupancy (ticks) (Tick)
system.membus.reqLayer2.utilization               0.0                       # Layer utilization (Ratio)
system.membus.respLayer1.occupancy       873987556750                       # Layer occupancy (ticks) (Tick)
system.membus.respLayer1.utilization              0.0                       # Layer utilization (Ratio)
system.membus.snoop_filter.totRequests      331466135                       # Total number of requests made to the snoop filter. (Count)
system.membus.snoop_filter.hitSingleRequests    165724623                       # Number of requests hitting in the snoop filter with a single holder of the requested data. (Count)
system.membus.snoop_filter.hitMultiRequests            0                       # Number of requests hitting in the snoop filter with multiple (>1) holders of the requested data. (Count)
system.membus.snoop_filter.totSnoops                0                       # Total number of snoops made to the snoop filter. (Count)
system.membus.snoop_filter.hitSingleSnoops            0                       # Number of snoops hitting in the snoop filter with a single holder of the requested data. (Count)
system.membus.snoop_filter.hitMultiSnoops            0                       # Number of snoops hitting in the snoop filter with multiple (>1) holders of the requested data. (Count)
system.workload.inst.arm                            0                       # number of arm instructions executed (Count)
system.workload.inst.quiesce                        0                       # number of quiesce instructions executed (Count)

---------- End Simulation Statistics   ----------
