
---------- Begin Simulation Statistics ----------
simSeconds                                  73.030511                       # Number of seconds simulated (Second)
simTicks                                 73030511277000                       # Number of ticks simulated (Tick)
finalTick                                73030511277000                       # Number of ticks from beginning of simulation (restored from checkpoints and never reset) (Tick)
simFreq                                  1000000000000                       # The number of ticks per simulated second ((Tick/Second))
hostSeconds                                   9011.06                       # Real time elapsed on the host (Second)
hostTickRate                               8104540025                       # The number of ticks simulated per host second (ticks/s) ((Tick/Second))
hostMemory                                     690796                       # Number of bytes of host memory used (Byte)
simInsts                                  10617797879                       # Number of instructions simulated (Count)
simOps                                    19917690111                       # Number of ops (including micro ops) simulated (Count)
hostInstRate                                  1178307                       # Simulator instruction rate (inst/s) ((Count/Second))
hostOpRate                                    2210360                       # Simulator op (including micro ops) rate (op/s) ((Count/Second))
system.clk_domain.clock                          1000                       # Clock period in ticks (Tick)
system.clk_domain.voltage_domain.voltage            1                       # Voltage in Volts (Volt)
system.cpu.numCycles                      73030511277                       # Number of cpu cycles simulated (Cycle)
system.cpu.cpi                               6.878122                       # CPI: cycles per instruction (core level) ((Cycle/Count))
system.cpu.ipc                               0.145389                       # IPC: instructions per cycle (core level) ((Count/Cycle))
system.cpu.numWorkItemsStarted                      0                       # Number of work items this cpu started (Count)
system.cpu.numWorkItemsCompleted                    0                       # Number of work items this cpu completed (Count)
system.cpu.commitStats0.numInsts          10617797903                       # Number of instructions committed (thread level) (Count)
system.cpu.commitStats0.numOps            19917697209                       # Number of ops (including micro ops) committed (thread level) (Count)
system.cpu.commitStats0.numInstsNotNOP              0                       # Number of instructions committed excluding NOPs or prefetches (Count)
system.cpu.commitStats0.numOpsNotNOP                0                       # Number of Ops (including micro ops) Simulated (Count)
system.cpu.commitStats0.cpi                  6.878122                       # CPI: cycles per instruction (thread level) ((Cycle/Count))
system.cpu.commitStats0.ipc                  0.145389                       # IPC: instructions per cycle (thread level) ((Count/Cycle))
system.cpu.commitStats0.numMemRefs                  0                       # Number of memory references committed (Count)
system.cpu.commitStats0.numFpInsts        10656668832                       # Number of float instructions (Count)
system.cpu.commitStats0.numIntInsts       14545653709                       # Number of integer instructions (Count)
system.cpu.commitStats0.numLoadInsts       3961119942                       # Number of load instructions (Count)
system.cpu.commitStats0.numStoreInsts      1324738067                       # Number of store instructions (Count)
system.cpu.commitStats0.numVecInsts                 0                       # Number of vector instructions (Count)
system.cpu.commitStats0.committedInstType::No_OpClass      1205487      0.01%      0.01% # Class of committed instruction. (Count)
system.cpu.commitStats0.committedInstType::IntAlu   9281223627     46.60%     46.60% # Class of committed instruction. (Count)
system.cpu.commitStats0.committedInstType::IntMult           44      0.00%     46.60% # Class of committed instruction. (Count)
system.cpu.commitStats0.committedInstType::IntDiv          114      0.00%     46.60% # Class of committed instruction. (Count)
system.cpu.commitStats0.committedInstType::FloatAdd   1320003351      6.63%     53.23% # Class of committed instruction. (Count)
system.cpu.commitStats0.committedInstType::FloatCmp            0      0.00%     53.23% # Class of committed instruction. (Count)
system.cpu.commitStats0.committedInstType::FloatCvt            0      0.00%     53.23% # Class of committed instruction. (Count)
system.cpu.commitStats0.committedInstType::FloatMult            0      0.00%     53.23% # Class of committed instruction. (Count)
system.cpu.commitStats0.committedInstType::FloatMultAcc            0      0.00%     53.23% # Class of committed instruction. (Count)
system.cpu.commitStats0.committedInstType::FloatDiv            0      0.00%     53.23% # Class of committed instruction. (Count)
system.cpu.commitStats0.committedInstType::FloatMisc            0      0.00%     53.23% # Class of committed instruction. (Count)
system.cpu.commitStats0.committedInstType::FloatSqrt            0      0.00%     53.23% # Class of committed instruction. (Count)
system.cpu.commitStats0.committedInstType::SimdAdd     16950010      0.09%     53.32% # Class of committed instruction. (Count)
system.cpu.commitStats0.committedInstType::SimdAddAcc            0      0.00%     53.32% # Class of committed instruction. (Count)
system.cpu.commitStats0.committedInstType::SimdAlu          243      0.00%     53.32% # Class of committed instruction. (Count)
system.cpu.commitStats0.committedInstType::SimdCmp            4      0.00%     53.32% # Class of committed instruction. (Count)
system.cpu.commitStats0.committedInstType::SimdCvt      3620082      0.02%     53.33% # Class of committed instruction. (Count)
system.cpu.commitStats0.committedInstType::SimdMisc     10869835      0.05%     53.39% # Class of committed instruction. (Count)
system.cpu.commitStats0.committedInstType::SimdMult     14480000      0.07%     53.46% # Class of committed instruction. (Count)
system.cpu.commitStats0.committedInstType::SimdMultAcc            0      0.00%     53.46% # Class of committed instruction. (Count)
system.cpu.commitStats0.committedInstType::SimdMatMultAcc            0      0.00%     53.46% # Class of committed instruction. (Count)
system.cpu.commitStats0.committedInstType::SimdShift     15146403      0.08%     53.54% # Class of committed instruction. (Count)
system.cpu.commitStats0.committedInstType::SimdShiftAcc            0      0.00%     53.54% # Class of committed instruction. (Count)
system.cpu.commitStats0.committedInstType::SimdDiv            0      0.00%     53.54% # Class of committed instruction. (Count)
system.cpu.commitStats0.committedInstType::SimdSqrt            0      0.00%     53.54% # Class of committed instruction. (Count)
system.cpu.commitStats0.committedInstType::SimdFloatAdd   1320000000      6.63%     60.17% # Class of committed instruction. (Count)
system.cpu.commitStats0.committedInstType::SimdFloatAlu            0      0.00%     60.17% # Class of committed instruction. (Count)
system.cpu.commitStats0.committedInstType::SimdFloatCmp            0      0.00%     60.17% # Class of committed instruction. (Count)
system.cpu.commitStats0.committedInstType::SimdFloatCvt      3620000      0.02%     60.18% # Class of committed instruction. (Count)
system.cpu.commitStats0.committedInstType::SimdFloatDiv      3620000      0.02%     60.20% # Class of committed instruction. (Count)
system.cpu.commitStats0.committedInstType::SimdFloatMisc            0      0.00%     60.20% # Class of committed instruction. (Count)
system.cpu.commitStats0.committedInstType::SimdFloatMult   2641100000     13.26%     73.46% # Class of committed instruction. (Count)
system.cpu.commitStats0.committedInstType::SimdFloatMultAcc            0      0.00%     73.46% # Class of committed instruction. (Count)
system.cpu.commitStats0.committedInstType::SimdFloatMatMultAcc            0      0.00%     73.46% # Class of committed instruction. (Count)
system.cpu.commitStats0.committedInstType::SimdFloatSqrt            0      0.00%     73.46% # Class of committed instruction. (Count)
system.cpu.commitStats0.committedInstType::SimdReduceAdd            0      0.00%     73.46% # Class of committed instruction. (Count)
system.cpu.commitStats0.committedInstType::SimdReduceAlu            0      0.00%     73.46% # Class of committed instruction. (Count)
system.cpu.commitStats0.committedInstType::SimdReduceCmp            0      0.00%     73.46% # Class of committed instruction. (Count)
system.cpu.commitStats0.committedInstType::SimdFloatReduceAdd            0      0.00%     73.46% # Class of committed instruction. (Count)
system.cpu.commitStats0.committedInstType::SimdFloatReduceCmp            0      0.00%     73.46% # Class of committed instruction. (Count)
system.cpu.commitStats0.committedInstType::SimdAes            0      0.00%     73.46% # Class of committed instruction. (Count)
system.cpu.commitStats0.committedInstType::SimdAesMix            0      0.00%     73.46% # Class of committed instruction. (Count)
system.cpu.commitStats0.committedInstType::SimdSha1Hash            0      0.00%     73.46% # Class of committed instruction. (Count)
system.cpu.commitStats0.committedInstType::SimdSha1Hash2            0      0.00%     73.46% # Class of committed instruction. (Count)
system.cpu.commitStats0.committedInstType::SimdSha256Hash            0      0.00%     73.46% # Class of committed instruction. (Count)
system.cpu.commitStats0.committedInstType::SimdSha256Hash2            0      0.00%     73.46% # Class of committed instruction. (Count)
system.cpu.commitStats0.committedInstType::SimdShaSigma2            0      0.00%     73.46% # Class of committed instruction. (Count)
system.cpu.commitStats0.committedInstType::SimdShaSigma3            0      0.00%     73.46% # Class of committed instruction. (Count)
system.cpu.commitStats0.committedInstType::SimdPredAlu            0      0.00%     73.46% # Class of committed instruction. (Count)
system.cpu.commitStats0.committedInstType::Matrix            0      0.00%     73.46% # Class of committed instruction. (Count)
system.cpu.commitStats0.committedInstType::MatrixMov            0      0.00%     73.46% # Class of committed instruction. (Count)
system.cpu.commitStats0.committedInstType::MatrixOP            0      0.00%     73.46% # Class of committed instruction. (Count)
system.cpu.commitStats0.committedInstType::MemRead        19798      0.00%     73.46% # Class of committed instruction. (Count)
system.cpu.commitStats0.committedInstType::MemWrite        10480      0.00%     73.46% # Class of committed instruction. (Count)
system.cpu.commitStats0.committedInstType::FloatMemRead   3961100144     19.89%     93.35% # Class of committed instruction. (Count)
system.cpu.commitStats0.committedInstType::FloatMemWrite   1324727587      6.65%    100.00% # Class of committed instruction. (Count)
system.cpu.commitStats0.committedInstType::IprAccess            0      0.00%    100.00% # Class of committed instruction. (Count)
system.cpu.commitStats0.committedInstType::InstPrefetch            0      0.00%    100.00% # Class of committed instruction. (Count)
system.cpu.commitStats0.committedInstType::VectorUnitStrideLoad            0      0.00%    100.00% # Class of committed instruction. (Count)
system.cpu.commitStats0.committedInstType::VectorUnitStrideStore            0      0.00%    100.00% # Class of committed instruction. (Count)
system.cpu.commitStats0.committedInstType::VectorUnitStrideMaskLoad            0      0.00%    100.00% # Class of committed instruction. (Count)
system.cpu.commitStats0.committedInstType::VectorUnitStrideMaskStore            0      0.00%    100.00% # Class of committed instruction. (Count)
system.cpu.commitStats0.committedInstType::VectorStridedLoad            0      0.00%    100.00% # Class of committed instruction. (Count)
system.cpu.commitStats0.committedInstType::VectorStridedStore            0      0.00%    100.00% # Class of committed instruction. (Count)
system.cpu.commitStats0.committedInstType::VectorIndexedLoad            0      0.00%    100.00% # Class of committed instruction. (Count)
system.cpu.commitStats0.committedInstType::VectorIndexedStore            0      0.00%    100.00% # Class of committed instruction. (Count)
system.cpu.commitStats0.committedInstType::VectorUnitStrideFaultOnlyFirstLoad            0      0.00%    100.00% # Class of committed instruction. (Count)
system.cpu.commitStats0.committedInstType::VectorWholeRegisterLoad            0      0.00%    100.00% # Class of committed instruction. (Count)
system.cpu.commitStats0.committedInstType::VectorWholeRegisterStore            0      0.00%    100.00% # Class of committed instruction. (Count)
system.cpu.commitStats0.committedInstType::VectorIntegerArith            0      0.00%    100.00% # Class of committed instruction. (Count)
system.cpu.commitStats0.committedInstType::VectorFloatArith            0      0.00%    100.00% # Class of committed instruction. (Count)
system.cpu.commitStats0.committedInstType::VectorFloatConvert            0      0.00%    100.00% # Class of committed instruction. (Count)
system.cpu.commitStats0.committedInstType::VectorIntegerReduce            0      0.00%    100.00% # Class of committed instruction. (Count)
system.cpu.commitStats0.committedInstType::VectorFloatReduce            0      0.00%    100.00% # Class of committed instruction. (Count)
system.cpu.commitStats0.committedInstType::VectorMisc            0      0.00%    100.00% # Class of committed instruction. (Count)
system.cpu.commitStats0.committedInstType::VectorIntegerExtension            0      0.00%    100.00% # Class of committed instruction. (Count)
system.cpu.commitStats0.committedInstType::VectorConfig            0      0.00%    100.00% # Class of committed instruction. (Count)
system.cpu.commitStats0.committedInstType::total  19917697209                       # Class of committed instruction. (Count)
system.cpu.commitStats0.committedControl::IsControl   1322693424                       # Class of control type instructions committed (Count)
system.cpu.commitStats0.committedControl::IsDirectControl   1322688760                       # Class of control type instructions committed (Count)
system.cpu.commitStats0.committedControl::IsIndirectControl         4664                       # Class of control type instructions committed (Count)
system.cpu.commitStats0.committedControl::IsCondControl   1322682936                       # Class of control type instructions committed (Count)
system.cpu.commitStats0.committedControl::IsUncondControl        10488                       # Class of control type instructions committed (Count)
system.cpu.commitStats0.committedControl::IsCall         2435                       # Class of control type instructions committed (Count)
system.cpu.commitStats0.committedControl::IsReturn         2430                       # Class of control type instructions committed (Count)
system.cpu.dcache.demandHits::cpu.data     5119997737                       # number of demand (read+write) hits (Count)
system.cpu.dcache.demandHits::total        5119997737                       # number of demand (read+write) hits (Count)
system.cpu.dcache.overallHits::cpu.data    5119997737                       # number of overall hits (Count)
system.cpu.dcache.overallHits::total       5119997737                       # number of overall hits (Count)
system.cpu.dcache.demandMisses::cpu.data    165853112                       # number of demand (read+write) misses (Count)
system.cpu.dcache.demandMisses::total       165853112                       # number of demand (read+write) misses (Count)
system.cpu.dcache.overallMisses::cpu.data    165853112                       # number of overall misses (Count)
system.cpu.dcache.overallMisses::total      165853112                       # number of overall misses (Count)
system.cpu.dcache.demandMissLatency::cpu.data 33586293005000                       # number of demand (read+write) miss ticks (Tick)
system.cpu.dcache.demandMissLatency::total 33586293005000                       # number of demand (read+write) miss ticks (Tick)
system.cpu.dcache.overallMissLatency::cpu.data 33586293005000                       # number of overall miss ticks (Tick)
system.cpu.dcache.overallMissLatency::total 33586293005000                       # number of overall miss ticks (Tick)
system.cpu.dcache.demandAccesses::cpu.data   5285850849                       # number of demand (read+write) accesses (Count)
system.cpu.dcache.demandAccesses::total    5285850849                       # number of demand (read+write) accesses (Count)
system.cpu.dcache.overallAccesses::cpu.data   5285850849                       # number of overall (read+write) accesses (Count)
system.cpu.dcache.overallAccesses::total   5285850849                       # number of overall (read+write) accesses (Count)
system.cpu.dcache.demandMissRate::cpu.data     0.031377                       # miss rate for demand accesses (Ratio)
system.cpu.dcache.demandMissRate::total      0.031377                       # miss rate for demand accesses (Ratio)
system.cpu.dcache.overallMissRate::cpu.data     0.031377                       # miss rate for overall accesses (Ratio)
system.cpu.dcache.overallMissRate::total     0.031377                       # miss rate for overall accesses (Ratio)
system.cpu.dcache.demandAvgMissLatency::cpu.data 202506.257495                       # average overall miss latency in ticks ((Tick/Count))
system.cpu.dcache.demandAvgMissLatency::total 202506.257495                       # average overall miss latency in ticks ((Tick/Count))
system.cpu.dcache.overallAvgMissLatency::cpu.data 202506.257495                       # average overall miss latency ((Tick/Count))
system.cpu.dcache.overallAvgMissLatency::total 202506.257495                       # average overall miss latency ((Tick/Count))
system.cpu.dcache.blockedCycles::no_mshrs            0                       # number of cycles access was blocked (Cycle)
system.cpu.dcache.blockedCycles::no_targets            0                       # number of cycles access was blocked (Cycle)
system.cpu.dcache.blockedCauses::no_mshrs            0                       # number of times access was blocked (Count)
system.cpu.dcache.blockedCauses::no_targets            0                       # number of times access was blocked (Count)
system.cpu.dcache.avgBlocked::no_mshrs            nan                       # average number of cycles each access was blocked ((Cycle/Count))
system.cpu.dcache.avgBlocked::no_targets          nan                       # average number of cycles each access was blocked ((Cycle/Count))
system.cpu.dcache.writebacks::writebacks       692811                       # number of writebacks (Count)
system.cpu.dcache.writebacks::total            692811                       # number of writebacks (Count)
system.cpu.dcache.demandMshrMisses::cpu.data    165853112                       # number of demand (read+write) MSHR misses (Count)
system.cpu.dcache.demandMshrMisses::total    165853112                       # number of demand (read+write) MSHR misses (Count)
system.cpu.dcache.overallMshrMisses::cpu.data    165853112                       # number of overall MSHR misses (Count)
system.cpu.dcache.overallMshrMisses::total    165853112                       # number of overall MSHR misses (Count)
system.cpu.dcache.demandMshrMissLatency::cpu.data 33254586781000                       # number of demand (read+write) MSHR miss ticks (Tick)
system.cpu.dcache.demandMshrMissLatency::total 33254586781000                       # number of demand (read+write) MSHR miss ticks (Tick)
system.cpu.dcache.overallMshrMissLatency::cpu.data 33254586781000                       # number of overall MSHR miss ticks (Tick)
system.cpu.dcache.overallMshrMissLatency::total 33254586781000                       # number of overall MSHR miss ticks (Tick)
system.cpu.dcache.demandMshrMissRate::cpu.data     0.031377                       # mshr miss ratio for demand accesses (Ratio)
system.cpu.dcache.demandMshrMissRate::total     0.031377                       # mshr miss ratio for demand accesses (Ratio)
system.cpu.dcache.overallMshrMissRate::cpu.data     0.031377                       # mshr miss ratio for overall accesses (Ratio)
system.cpu.dcache.overallMshrMissRate::total     0.031377                       # mshr miss ratio for overall accesses (Ratio)
system.cpu.dcache.demandAvgMshrMissLatency::cpu.data 200506.257495                       # average overall mshr miss latency ((Tick/Count))
system.cpu.dcache.demandAvgMshrMissLatency::total 200506.257495                       # average overall mshr miss latency ((Tick/Count))
system.cpu.dcache.overallAvgMshrMissLatency::cpu.data 200506.257495                       # average overall mshr miss latency ((Tick/Count))
system.cpu.dcache.overallAvgMshrMissLatency::total 200506.257495                       # average overall mshr miss latency ((Tick/Count))
system.cpu.dcache.replacements              165852092                       # number of replacements (Count)
system.cpu.dcache.LockedRMWReadReq.hits::cpu.data           38                       # number of LockedRMWReadReq hits (Count)
system.cpu.dcache.LockedRMWReadReq.hits::total           38                       # number of LockedRMWReadReq hits (Count)
system.cpu.dcache.LockedRMWReadReq.misses::cpu.data            4                       # number of LockedRMWReadReq misses (Count)
system.cpu.dcache.LockedRMWReadReq.misses::total            4                       # number of LockedRMWReadReq misses (Count)
system.cpu.dcache.LockedRMWReadReq.missLatency::cpu.data       844000                       # number of LockedRMWReadReq miss ticks (Tick)
system.cpu.dcache.LockedRMWReadReq.missLatency::total       844000                       # number of LockedRMWReadReq miss ticks (Tick)
system.cpu.dcache.LockedRMWReadReq.accesses::cpu.data           42                       # number of LockedRMWReadReq accesses(hits+misses) (Count)
system.cpu.dcache.LockedRMWReadReq.accesses::total           42                       # number of LockedRMWReadReq accesses(hits+misses) (Count)
system.cpu.dcache.LockedRMWReadReq.missRate::cpu.data     0.095238                       # miss rate for LockedRMWReadReq accesses (Ratio)
system.cpu.dcache.LockedRMWReadReq.missRate::total     0.095238                       # miss rate for LockedRMWReadReq accesses (Ratio)
system.cpu.dcache.LockedRMWReadReq.avgMissLatency::cpu.data       211000                       # average LockedRMWReadReq miss latency ((Tick/Count))
system.cpu.dcache.LockedRMWReadReq.avgMissLatency::total       211000                       # average LockedRMWReadReq miss latency ((Tick/Count))
system.cpu.dcache.LockedRMWReadReq.mshrMisses::cpu.data            4                       # number of LockedRMWReadReq MSHR misses (Count)
system.cpu.dcache.LockedRMWReadReq.mshrMisses::total            4                       # number of LockedRMWReadReq MSHR misses (Count)
system.cpu.dcache.LockedRMWReadReq.mshrMissLatency::cpu.data      1756000                       # number of LockedRMWReadReq MSHR miss ticks (Tick)
system.cpu.dcache.LockedRMWReadReq.mshrMissLatency::total      1756000                       # number of LockedRMWReadReq MSHR miss ticks (Tick)
system.cpu.dcache.LockedRMWReadReq.mshrMissRate::cpu.data     0.095238                       # mshr miss rate for LockedRMWReadReq accesses (Ratio)
system.cpu.dcache.LockedRMWReadReq.mshrMissRate::total     0.095238                       # mshr miss rate for LockedRMWReadReq accesses (Ratio)
system.cpu.dcache.LockedRMWReadReq.avgMshrMissLatency::cpu.data       439000                       # average LockedRMWReadReq mshr miss latency ((Tick/Count))
system.cpu.dcache.LockedRMWReadReq.avgMshrMissLatency::total       439000                       # average LockedRMWReadReq mshr miss latency ((Tick/Count))
system.cpu.dcache.LockedRMWWriteReq.hits::cpu.data           42                       # number of LockedRMWWriteReq hits (Count)
system.cpu.dcache.LockedRMWWriteReq.hits::total           42                       # number of LockedRMWWriteReq hits (Count)
system.cpu.dcache.LockedRMWWriteReq.accesses::cpu.data           42                       # number of LockedRMWWriteReq accesses(hits+misses) (Count)
system.cpu.dcache.LockedRMWWriteReq.accesses::total           42                       # number of LockedRMWWriteReq accesses(hits+misses) (Count)
system.cpu.dcache.ReadReq.hits::cpu.data   3795719442                       # number of ReadReq hits (Count)
system.cpu.dcache.ReadReq.hits::total      3795719442                       # number of ReadReq hits (Count)
system.cpu.dcache.ReadReq.misses::cpu.data    165400459                       # number of ReadReq misses (Count)
system.cpu.dcache.ReadReq.misses::total     165400459                       # number of ReadReq misses (Count)
system.cpu.dcache.ReadReq.missLatency::cpu.data 33493302574000                       # number of ReadReq miss ticks (Tick)
system.cpu.dcache.ReadReq.missLatency::total 33493302574000                       # number of ReadReq miss ticks (Tick)
system.cpu.dcache.ReadReq.accesses::cpu.data   3961119901                       # number of ReadReq accesses(hits+misses) (Count)
system.cpu.dcache.ReadReq.accesses::total   3961119901                       # number of ReadReq accesses(hits+misses) (Count)
system.cpu.dcache.ReadReq.missRate::cpu.data     0.041756                       # miss rate for ReadReq accesses (Ratio)
system.cpu.dcache.ReadReq.missRate::total     0.041756                       # miss rate for ReadReq accesses (Ratio)
system.cpu.dcache.ReadReq.avgMissLatency::cpu.data 202498.244421                       # average ReadReq miss latency ((Tick/Count))
system.cpu.dcache.ReadReq.avgMissLatency::total 202498.244421                       # average ReadReq miss latency ((Tick/Count))
system.cpu.dcache.ReadReq.mshrMisses::cpu.data    165400459                       # number of ReadReq MSHR misses (Count)
system.cpu.dcache.ReadReq.mshrMisses::total    165400459                       # number of ReadReq MSHR misses (Count)
system.cpu.dcache.ReadReq.mshrMissLatency::cpu.data 33162501656000                       # number of ReadReq MSHR miss ticks (Tick)
system.cpu.dcache.ReadReq.mshrMissLatency::total 33162501656000                       # number of ReadReq MSHR miss ticks (Tick)
system.cpu.dcache.ReadReq.mshrMissRate::cpu.data     0.041756                       # mshr miss rate for ReadReq accesses (Ratio)
system.cpu.dcache.ReadReq.mshrMissRate::total     0.041756                       # mshr miss rate for ReadReq accesses (Ratio)
system.cpu.dcache.ReadReq.avgMshrMissLatency::cpu.data 200498.244421                       # average ReadReq mshr miss latency ((Tick/Count))
system.cpu.dcache.ReadReq.avgMshrMissLatency::total 200498.244421                       # average ReadReq mshr miss latency ((Tick/Count))
system.cpu.dcache.WriteReq.hits::cpu.data   1324278295                       # number of WriteReq hits (Count)
system.cpu.dcache.WriteReq.hits::total     1324278295                       # number of WriteReq hits (Count)
system.cpu.dcache.WriteReq.misses::cpu.data       452653                       # number of WriteReq misses (Count)
system.cpu.dcache.WriteReq.misses::total       452653                       # number of WriteReq misses (Count)
system.cpu.dcache.WriteReq.missLatency::cpu.data  92990431000                       # number of WriteReq miss ticks (Tick)
system.cpu.dcache.WriteReq.missLatency::total  92990431000                       # number of WriteReq miss ticks (Tick)
system.cpu.dcache.WriteReq.accesses::cpu.data   1324730948                       # number of WriteReq accesses(hits+misses) (Count)
system.cpu.dcache.WriteReq.accesses::total   1324730948                       # number of WriteReq accesses(hits+misses) (Count)
system.cpu.dcache.WriteReq.missRate::cpu.data     0.000342                       # miss rate for WriteReq accesses (Ratio)
system.cpu.dcache.WriteReq.missRate::total     0.000342                       # miss rate for WriteReq accesses (Ratio)
system.cpu.dcache.WriteReq.avgMissLatency::cpu.data 205434.253170                       # average WriteReq miss latency ((Tick/Count))
system.cpu.dcache.WriteReq.avgMissLatency::total 205434.253170                       # average WriteReq miss latency ((Tick/Count))
system.cpu.dcache.WriteReq.mshrMisses::cpu.data       452653                       # number of WriteReq MSHR misses (Count)
system.cpu.dcache.WriteReq.mshrMisses::total       452653                       # number of WriteReq MSHR misses (Count)
system.cpu.dcache.WriteReq.mshrMissLatency::cpu.data  92085125000                       # number of WriteReq MSHR miss ticks (Tick)
system.cpu.dcache.WriteReq.mshrMissLatency::total  92085125000                       # number of WriteReq MSHR miss ticks (Tick)
system.cpu.dcache.WriteReq.mshrMissRate::cpu.data     0.000342                       # mshr miss rate for WriteReq accesses (Ratio)
system.cpu.dcache.WriteReq.mshrMissRate::total     0.000342                       # mshr miss rate for WriteReq accesses (Ratio)
system.cpu.dcache.WriteReq.avgMshrMissLatency::cpu.data 203434.253170                       # average WriteReq mshr miss latency ((Tick/Count))
system.cpu.dcache.WriteReq.avgMshrMissLatency::total 203434.253170                       # average WriteReq mshr miss latency ((Tick/Count))
system.cpu.dcache.power_state.pwrStateResidencyTicks::UNDEFINED 73030511277000                       # Cumulative time (in ticks) in various power states (Tick)
system.cpu.dcache.tags.tagsInUse          1023.993973                       # Average ticks per tags in use ((Tick/Count))
system.cpu.dcache.tags.totalRefs           5285850933                       # Total number of references to valid blocks. (Count)
system.cpu.dcache.tags.sampledRefs          165853116                       # Sample count of references to valid blocks. (Count)
system.cpu.dcache.tags.avgRefs              31.870676                       # Average number of references to valid blocks. ((Count/Count))
system.cpu.dcache.tags.warmupTick              428000                       # The tick when the warmup percentage was hit. (Tick)
system.cpu.dcache.tags.occupancies::cpu.data  1023.993973                       # Average occupied blocks per tick, per requestor ((Count/Tick))
system.cpu.dcache.tags.avgOccs::cpu.data     0.999994                       # Average percentage of cache occupancy ((Ratio/Tick))
system.cpu.dcache.tags.avgOccs::total        0.999994                       # Average percentage of cache occupancy ((Ratio/Tick))
system.cpu.dcache.tags.occupanciesTaskId::1024         1024                       # Occupied blocks per task id (Count)
system.cpu.dcache.tags.ageTaskId_1024::0           16                       # Occupied blocks per task id, per block age (Count)
system.cpu.dcache.tags.ageTaskId_1024::1          195                       # Occupied blocks per task id, per block age (Count)
system.cpu.dcache.tags.ageTaskId_1024::2          675                       # Occupied blocks per task id, per block age (Count)
system.cpu.dcache.tags.ageTaskId_1024::3            1                       # Occupied blocks per task id, per block age (Count)
system.cpu.dcache.tags.ageTaskId_1024::4          137                       # Occupied blocks per task id, per block age (Count)
system.cpu.dcache.tags.ratioOccsTaskId::1024            1                       # Ratio of occupied blocks and all blocks, per task id (Ratio)
system.cpu.dcache.tags.tagAccesses        10737554982                       # Number of tag accesses (Count)
system.cpu.dcache.tags.dataAccesses       10737554982                       # Number of data accesses (Count)
system.cpu.dcache.tags.power_state.pwrStateResidencyTicks::UNDEFINED 73030511277000                       # Cumulative time (in ticks) in various power states (Tick)
system.cpu.exec_context.thread_0.numMatAluAccesses            0                       # Number of matrix alu accesses (Count)
system.cpu.exec_context.thread_0.numCallsReturns         4865                       # Number of times a function call or return occured (Count)
system.cpu.exec_context.thread_0.numMatInsts            0                       # Number of matrix instructions (Count)
system.cpu.exec_context.thread_0.numIdleCycles     0.000997                       # Number of idle cycles (Cycle)
system.cpu.exec_context.thread_0.numBusyCycles 73030511276.999008                       # Number of busy cycles (Cycle)
system.cpu.exec_context.thread_0.notIdleFraction     1.000000                       # Percentage of non-idle cycles (Ratio)
system.cpu.exec_context.thread_0.idleFraction     0.000000                       # Percentage of idle cycles (Ratio)
system.cpu.executeStats0.numInsts                   0                       # Number of executed instructions (Count)
system.cpu.executeStats0.numNop                     0                       # Number of nop insts executed (Count)
system.cpu.executeStats0.numBranches                0                       # Number of branches executed (Count)
system.cpu.executeStats0.numLoadInsts               0                       # Number of load instructions executed (Count)
system.cpu.executeStats0.numStoreInsts     5285858009                       # Number of stores executed (Count)
system.cpu.executeStats0.instRate                   0                       # Inst execution rate ((Count/Cycle))
system.cpu.executeStats0.numFpAluAccesses  10656668832                       # Number of float alu accesses (Count)
system.cpu.executeStats0.numFpRegReads    13435226174                       # Number of times the floating registers were read (Count)
system.cpu.executeStats0.numFpRegWrites    9331941174                       # Number of times the floating registers were written (Count)
system.cpu.executeStats0.numIntAluAccesses  14545653709                       # Number of integer alu accesses (Count)
system.cpu.executeStats0.numIntRegReads   17186942537                       # Number of times the integer registers were read (Count)
system.cpu.executeStats0.numIntRegWrites   6614435416                       # Number of times the integer registers were written (Count)
system.cpu.executeStats0.numMemRefs        5285858009                       # Number of memory refs (Count)
system.cpu.executeStats0.numMiscRegReads   7931242783                       # Number of times the Misc registers were read (Count)
system.cpu.executeStats0.numVecAluAccesses            0                       # Number of vector alu accesses (Count)
system.cpu.executeStats0.numDiscardedOps            0                       # Number of ops (including micro ops) which were discarded before commit (Count)
system.cpu.fetchStats0.numInsts           10617797903                       # Number of instructions fetched (thread level) (Count)
system.cpu.fetchStats0.numOps             19917697209                       # Number of ops (including micro ops) fetched (thread level) (Count)
system.cpu.fetchStats0.fetchRate             0.145389                       # Number of inst fetches per cycle ((Count/Cycle))
system.cpu.fetchStats0.numBranches         1322693424                       # Number of branches fetched (Count)
system.cpu.fetchStats0.branchRate            0.018112                       # Number of branch fetches per cycle (Ratio)
system.cpu.fetchStats0.numFetchSuspends             0                       # Number of times Execute suspended instruction fetching (Count)
system.cpu.icache.demandHits::cpu.inst    14602051832                       # number of demand (read+write) hits (Count)
system.cpu.icache.demandHits::total       14602051832                       # number of demand (read+write) hits (Count)
system.cpu.icache.overallHits::cpu.inst   14602051832                       # number of overall hits (Count)
system.cpu.icache.overallHits::total      14602051832                       # number of overall hits (Count)
system.cpu.icache.demandMisses::cpu.inst          570                       # number of demand (read+write) misses (Count)
system.cpu.icache.demandMisses::total             570                       # number of demand (read+write) misses (Count)
system.cpu.icache.overallMisses::cpu.inst          570                       # number of overall misses (Count)
system.cpu.icache.overallMisses::total            570                       # number of overall misses (Count)
system.cpu.icache.demandMissLatency::cpu.inst    118133000                       # number of demand (read+write) miss ticks (Tick)
system.cpu.icache.demandMissLatency::total    118133000                       # number of demand (read+write) miss ticks (Tick)
system.cpu.icache.overallMissLatency::cpu.inst    118133000                       # number of overall miss ticks (Tick)
system.cpu.icache.overallMissLatency::total    118133000                       # number of overall miss ticks (Tick)
system.cpu.icache.demandAccesses::cpu.inst  14602052402                       # number of demand (read+write) accesses (Count)
system.cpu.icache.demandAccesses::total   14602052402                       # number of demand (read+write) accesses (Count)
system.cpu.icache.overallAccesses::cpu.inst  14602052402                       # number of overall (read+write) accesses (Count)
system.cpu.icache.overallAccesses::total  14602052402                       # number of overall (read+write) accesses (Count)
system.cpu.icache.demandMissRate::cpu.inst     0.000000                       # miss rate for demand accesses (Ratio)
system.cpu.icache.demandMissRate::total      0.000000                       # miss rate for demand accesses (Ratio)
system.cpu.icache.overallMissRate::cpu.inst     0.000000                       # miss rate for overall accesses (Ratio)
system.cpu.icache.overallMissRate::total     0.000000                       # miss rate for overall accesses (Ratio)
system.cpu.icache.demandAvgMissLatency::cpu.inst 207250.877193                       # average overall miss latency in ticks ((Tick/Count))
system.cpu.icache.demandAvgMissLatency::total 207250.877193                       # average overall miss latency in ticks ((Tick/Count))
system.cpu.icache.overallAvgMissLatency::cpu.inst 207250.877193                       # average overall miss latency ((Tick/Count))
system.cpu.icache.overallAvgMissLatency::total 207250.877193                       # average overall miss latency ((Tick/Count))
system.cpu.icache.blockedCycles::no_mshrs            0                       # number of cycles access was blocked (Cycle)
system.cpu.icache.blockedCycles::no_targets            0                       # number of cycles access was blocked (Cycle)
system.cpu.icache.blockedCauses::no_mshrs            0                       # number of times access was blocked (Count)
system.cpu.icache.blockedCauses::no_targets            0                       # number of times access was blocked (Count)
system.cpu.icache.avgBlocked::no_mshrs            nan                       # average number of cycles each access was blocked ((Cycle/Count))
system.cpu.icache.avgBlocked::no_targets          nan                       # average number of cycles each access was blocked ((Cycle/Count))
system.cpu.icache.demandMshrMisses::cpu.inst          570                       # number of demand (read+write) MSHR misses (Count)
system.cpu.icache.demandMshrMisses::total          570                       # number of demand (read+write) MSHR misses (Count)
system.cpu.icache.overallMshrMisses::cpu.inst          570                       # number of overall MSHR misses (Count)
system.cpu.icache.overallMshrMisses::total          570                       # number of overall MSHR misses (Count)
system.cpu.icache.demandMshrMissLatency::cpu.inst    116993000                       # number of demand (read+write) MSHR miss ticks (Tick)
system.cpu.icache.demandMshrMissLatency::total    116993000                       # number of demand (read+write) MSHR miss ticks (Tick)
system.cpu.icache.overallMshrMissLatency::cpu.inst    116993000                       # number of overall MSHR miss ticks (Tick)
system.cpu.icache.overallMshrMissLatency::total    116993000                       # number of overall MSHR miss ticks (Tick)
system.cpu.icache.demandMshrMissRate::cpu.inst     0.000000                       # mshr miss ratio for demand accesses (Ratio)
system.cpu.icache.demandMshrMissRate::total     0.000000                       # mshr miss ratio for demand accesses (Ratio)
system.cpu.icache.overallMshrMissRate::cpu.inst     0.000000                       # mshr miss ratio for overall accesses (Ratio)
system.cpu.icache.overallMshrMissRate::total     0.000000                       # mshr miss ratio for overall accesses (Ratio)
system.cpu.icache.demandAvgMshrMissLatency::cpu.inst 205250.877193                       # average overall mshr miss latency ((Tick/Count))
system.cpu.icache.demandAvgMshrMissLatency::total 205250.877193                       # average overall mshr miss latency ((Tick/Count))
system.cpu.icache.overallAvgMshrMissLatency::cpu.inst 205250.877193                       # average overall mshr miss latency ((Tick/Count))
system.cpu.icache.overallAvgMshrMissLatency::total 205250.877193                       # average overall mshr miss latency ((Tick/Count))
system.cpu.icache.replacements                    133                       # number of replacements (Count)
system.cpu.icache.ReadReq.hits::cpu.inst  14602051832                       # number of ReadReq hits (Count)
system.cpu.icache.ReadReq.hits::total     14602051832                       # number of ReadReq hits (Count)
system.cpu.icache.ReadReq.misses::cpu.inst          570                       # number of ReadReq misses (Count)
system.cpu.icache.ReadReq.misses::total           570                       # number of ReadReq misses (Count)
system.cpu.icache.ReadReq.missLatency::cpu.inst    118133000                       # number of ReadReq miss ticks (Tick)
system.cpu.icache.ReadReq.missLatency::total    118133000                       # number of ReadReq miss ticks (Tick)
system.cpu.icache.ReadReq.accesses::cpu.inst  14602052402                       # number of ReadReq accesses(hits+misses) (Count)
system.cpu.icache.ReadReq.accesses::total  14602052402                       # number of ReadReq accesses(hits+misses) (Count)
system.cpu.icache.ReadReq.missRate::cpu.inst     0.000000                       # miss rate for ReadReq accesses (Ratio)
system.cpu.icache.ReadReq.missRate::total     0.000000                       # miss rate for ReadReq accesses (Ratio)
system.cpu.icache.ReadReq.avgMissLatency::cpu.inst 207250.877193                       # average ReadReq miss latency ((Tick/Count))
system.cpu.icache.ReadReq.avgMissLatency::total 207250.877193                       # average ReadReq miss latency ((Tick/Count))
system.cpu.icache.ReadReq.mshrMisses::cpu.inst          570                       # number of ReadReq MSHR misses (Count)
system.cpu.icache.ReadReq.mshrMisses::total          570                       # number of ReadReq MSHR misses (Count)
system.cpu.icache.ReadReq.mshrMissLatency::cpu.inst    116993000                       # number of ReadReq MSHR miss ticks (Tick)
system.cpu.icache.ReadReq.mshrMissLatency::total    116993000                       # number of ReadReq MSHR miss ticks (Tick)
system.cpu.icache.ReadReq.mshrMissRate::cpu.inst     0.000000                       # mshr miss rate for ReadReq accesses (Ratio)
system.cpu.icache.ReadReq.mshrMissRate::total     0.000000                       # mshr miss rate for ReadReq accesses (Ratio)
system.cpu.icache.ReadReq.avgMshrMissLatency::cpu.inst 205250.877193                       # average ReadReq mshr miss latency ((Tick/Count))
system.cpu.icache.ReadReq.avgMshrMissLatency::total 205250.877193                       # average ReadReq mshr miss latency ((Tick/Count))
system.cpu.icache.power_state.pwrStateResidencyTicks::UNDEFINED 73030511277000                       # Cumulative time (in ticks) in various power states (Tick)
system.cpu.icache.tags.tagsInUse           408.982456                       # Average ticks per tags in use ((Tick/Count))
system.cpu.icache.tags.totalRefs           1717150514                       # Total number of references to valid blocks. (Count)
system.cpu.icache.tags.sampledRefs                570                       # Sample count of references to valid blocks. (Count)
system.cpu.icache.tags.avgRefs           3012544.761404                       # Average number of references to valid blocks. ((Count/Count))
system.cpu.icache.tags.warmupTick              209000                       # The tick when the warmup percentage was hit. (Tick)
system.cpu.icache.tags.occupancies::cpu.inst   408.982456                       # Average occupied blocks per tick, per requestor ((Count/Tick))
system.cpu.icache.tags.avgOccs::cpu.inst     0.798794                       # Average percentage of cache occupancy ((Ratio/Tick))
system.cpu.icache.tags.avgOccs::total        0.798794                       # Average percentage of cache occupancy ((Ratio/Tick))
system.cpu.icache.tags.occupanciesTaskId::1024          437                       # Occupied blocks per task id (Count)
system.cpu.icache.tags.ageTaskId_1024::0           26                       # Occupied blocks per task id, per block age (Count)
system.cpu.icache.tags.ageTaskId_1024::1           45                       # Occupied blocks per task id, per block age (Count)
system.cpu.icache.tags.ageTaskId_1024::4          366                       # Occupied blocks per task id, per block age (Count)
system.cpu.icache.tags.ratioOccsTaskId::1024     0.853516                       # Ratio of occupied blocks and all blocks, per task id (Ratio)
system.cpu.icache.tags.tagAccesses        29204105374                       # Number of tag accesses (Count)
system.cpu.icache.tags.dataAccesses       29204105374                       # Number of data accesses (Count)
system.cpu.icache.tags.power_state.pwrStateResidencyTicks::UNDEFINED 73030511277000                       # Cumulative time (in ticks) in various power states (Tick)
system.cpu.interrupts.clk_domain.clock          16000                       # Clock period in ticks (Tick)
system.cpu.mmu.dtb.rdAccesses              3961119944                       # TLB accesses on read requests (Count)
system.cpu.mmu.dtb.wrAccesses              1324738067                       # TLB accesses on write requests (Count)
system.cpu.mmu.dtb.rdMisses                   2583542                       # TLB misses on read requests (Count)
system.cpu.mmu.dtb.wrMisses                     14162                       # TLB misses on write requests (Count)
system.cpu.mmu.dtb.walker.power_state.pwrStateResidencyTicks::UNDEFINED 73030511277000                       # Cumulative time (in ticks) in various power states (Tick)
system.cpu.mmu.itb.rdAccesses                       0                       # TLB accesses on read requests (Count)
system.cpu.mmu.itb.wrAccesses             14602052402                       # TLB accesses on write requests (Count)
system.cpu.mmu.itb.rdMisses                         0                       # TLB misses on read requests (Count)
system.cpu.mmu.itb.wrMisses                        62                       # TLB misses on write requests (Count)
system.cpu.mmu.itb.walker.power_state.pwrStateResidencyTicks::UNDEFINED 73030511277000                       # Cumulative time (in ticks) in various power states (Tick)
system.cpu.power_state.pwrStateResidencyTicks::ON 73030511277000                       # Cumulative time (in ticks) in various power states (Tick)
system.cpu.thread_0.numInsts                        0                       # Number of Instructions committed (Count)
system.cpu.thread_0.numOps                          0                       # Number of Ops committed (Count)
system.cpu.thread_0.numMemRefs                      0                       # Number of Memory References (Count)
system.cpu.workload.numSyscalls                    20                       # Number of system calls (Count)
system.l2bus.transDist::ReadResp            165401029                       # Transaction distribution (Count)
system.l2bus.transDist::WritebackDirty        1282838                       # Transaction distribution (Count)
system.l2bus.transDist::CleanEvict          330621786                       # Transaction distribution (Count)
system.l2bus.transDist::ReadExReq              452657                       # Transaction distribution (Count)
system.l2bus.transDist::ReadExResp             452657                       # Transaction distribution (Count)
system.l2bus.transDist::ReadSharedReq       165401029                       # Transaction distribution (Count)
system.l2bus.pktCount_system.cpu.icache.mem_side_port::system.l2cache.cpu_side_port         1273                       # Packet count per connected requestor and responder (Count)
system.l2bus.pktCount_system.cpu.dcache.mem_side_port::system.l2cache.cpu_side_port    497558324                       # Packet count per connected requestor and responder (Count)
system.l2bus.pktCount::total                497559597                       # Packet count per connected requestor and responder (Count)
system.l2bus.pktSize_system.cpu.icache.mem_side_port::system.l2cache.cpu_side_port        36480                       # Cumulative packet size per connected requestor and responder (Byte)
system.l2bus.pktSize_system.cpu.dcache.mem_side_port::system.l2cache.cpu_side_port  10658939328                       # Cumulative packet size per connected requestor and responder (Byte)
system.l2bus.pktSize::total               10658975808                       # Cumulative packet size per connected requestor and responder (Byte)
system.l2bus.snoops                         166052399                       # Total snoops (Count)
system.l2bus.snoopTraffic                    37761728                       # Total snoop traffic (Byte)
system.l2bus.snoopFanout::samples           331906085                       # Request fanout histogram (Count)
system.l2bus.snoopFanout::mean               0.000951                       # Request fanout histogram (Count)
system.l2bus.snoopFanout::stdev              0.030818                       # Request fanout histogram (Count)
system.l2bus.snoopFanout::underflows                0      0.00%      0.00% # Request fanout histogram (Count)
system.l2bus.snoopFanout::0                 331590548     99.90%     99.90% # Request fanout histogram (Count)
system.l2bus.snoopFanout::1                    315537      0.10%    100.00% # Request fanout histogram (Count)
system.l2bus.snoopFanout::2                         0      0.00%    100.00% # Request fanout histogram (Count)
system.l2bus.snoopFanout::overflows                 0      0.00%    100.00% # Request fanout histogram (Count)
system.l2bus.snoopFanout::min_value                 0                       # Request fanout histogram (Count)
system.l2bus.snoopFanout::max_value                 1                       # Request fanout histogram (Count)
system.l2bus.snoopFanout::total             331906085                       # Request fanout histogram (Count)
system.l2bus.power_state.pwrStateResidencyTicks::UNDEFINED 73030511277000                       # Cumulative time (in ticks) in various power states (Tick)
system.l2bus.reqLayer0.occupancy         333091533000                       # Layer occupancy (ticks) (Tick)
system.l2bus.reqLayer0.utilization                0.0                       # Layer utilization (Ratio)
system.l2bus.respLayer0.occupancy             1710000                       # Layer occupancy (ticks) (Tick)
system.l2bus.respLayer0.utilization               0.0                       # Layer utilization (Ratio)
system.l2bus.respLayer1.occupancy        497559348000                       # Layer occupancy (ticks) (Tick)
system.l2bus.respLayer1.utilization               0.0                       # Layer utilization (Ratio)
system.l2bus.snoop_filter.totRequests       331705911                       # Total number of requests made to the snoop filter. (Count)
system.l2bus.snoop_filter.hitSingleRequests    165852225                       # Number of requests hitting in the snoop filter with a single holder of the requested data. (Count)
system.l2bus.snoop_filter.hitMultiRequests            0                       # Number of requests hitting in the snoop filter with multiple (>1) holders of the requested data. (Count)
system.l2bus.snoop_filter.totSnoops            315537                       # Total number of snoops made to the snoop filter. (Count)
system.l2bus.snoop_filter.hitSingleSnoops       315537                       # Number of snoops hitting in the snoop filter with a single holder of the requested data. (Count)
system.l2bus.snoop_filter.hitMultiSnoops            0                       # Number of snoops hitting in the snoop filter with multiple (>1) holders of the requested data. (Count)
system.l2cache.demandHits::cpu.data            112174                       # number of demand (read+write) hits (Count)
system.l2cache.demandHits::total               112174                       # number of demand (read+write) hits (Count)
system.l2cache.overallHits::cpu.data           112174                       # number of overall hits (Count)
system.l2cache.overallHits::total              112174                       # number of overall hits (Count)
system.l2cache.demandMisses::cpu.inst             570                       # number of demand (read+write) misses (Count)
system.l2cache.demandMisses::cpu.data       165740942                       # number of demand (read+write) misses (Count)
system.l2cache.demandMisses::total          165741512                       # number of demand (read+write) misses (Count)
system.l2cache.overallMisses::cpu.inst            570                       # number of overall misses (Count)
system.l2cache.overallMisses::cpu.data      165740942                       # number of overall misses (Count)
system.l2cache.overallMisses::total         165741512                       # number of overall misses (Count)
system.l2cache.demandMissLatency::cpu.inst    115283000                       # number of demand (read+write) miss ticks (Tick)
system.l2cache.demandMissLatency::cpu.data 32754511829000                       # number of demand (read+write) miss ticks (Tick)
system.l2cache.demandMissLatency::total  32754627112000                       # number of demand (read+write) miss ticks (Tick)
system.l2cache.overallMissLatency::cpu.inst    115283000                       # number of overall miss ticks (Tick)
system.l2cache.overallMissLatency::cpu.data 32754511829000                       # number of overall miss ticks (Tick)
system.l2cache.overallMissLatency::total 32754627112000                       # number of overall miss ticks (Tick)
system.l2cache.demandAccesses::cpu.inst           570                       # number of demand (read+write) accesses (Count)
system.l2cache.demandAccesses::cpu.data     165853116                       # number of demand (read+write) accesses (Count)
system.l2cache.demandAccesses::total        165853686                       # number of demand (read+write) accesses (Count)
system.l2cache.overallAccesses::cpu.inst          570                       # number of overall (read+write) accesses (Count)
system.l2cache.overallAccesses::cpu.data    165853116                       # number of overall (read+write) accesses (Count)
system.l2cache.overallAccesses::total       165853686                       # number of overall (read+write) accesses (Count)
system.l2cache.demandMissRate::cpu.inst             1                       # miss rate for demand accesses (Ratio)
system.l2cache.demandMissRate::cpu.data      0.999324                       # miss rate for demand accesses (Ratio)
system.l2cache.demandMissRate::total         0.999324                       # miss rate for demand accesses (Ratio)
system.l2cache.overallMissRate::cpu.inst            1                       # miss rate for overall accesses (Ratio)
system.l2cache.overallMissRate::cpu.data     0.999324                       # miss rate for overall accesses (Ratio)
system.l2cache.overallMissRate::total        0.999324                       # miss rate for overall accesses (Ratio)
system.l2cache.demandAvgMissLatency::cpu.inst 202250.877193                       # average overall miss latency in ticks ((Tick/Count))
system.l2cache.demandAvgMissLatency::cpu.data 197624.747596                       # average overall miss latency in ticks ((Tick/Count))
system.l2cache.demandAvgMissLatency::total 197624.763505                       # average overall miss latency in ticks ((Tick/Count))
system.l2cache.overallAvgMissLatency::cpu.inst 202250.877193                       # average overall miss latency ((Tick/Count))
system.l2cache.overallAvgMissLatency::cpu.data 197624.747596                       # average overall miss latency ((Tick/Count))
system.l2cache.overallAvgMissLatency::total 197624.763505                       # average overall miss latency ((Tick/Count))
system.l2cache.blockedCycles::no_mshrs              0                       # number of cycles access was blocked (Cycle)
system.l2cache.blockedCycles::no_targets            0                       # number of cycles access was blocked (Cycle)
system.l2cache.blockedCauses::no_mshrs              0                       # number of times access was blocked (Count)
system.l2cache.blockedCauses::no_targets            0                       # number of times access was blocked (Count)
system.l2cache.avgBlocked::no_mshrs               nan                       # average number of cycles each access was blocked ((Cycle/Count))
system.l2cache.avgBlocked::no_targets             nan                       # average number of cycles each access was blocked ((Cycle/Count))
system.l2cache.writebacks::writebacks          590027                       # number of writebacks (Count)
system.l2cache.writebacks::total               590027                       # number of writebacks (Count)
system.l2cache.demandMshrMisses::cpu.inst          570                       # number of demand (read+write) MSHR misses (Count)
system.l2cache.demandMshrMisses::cpu.data    165740942                       # number of demand (read+write) MSHR misses (Count)
system.l2cache.demandMshrMisses::total      165741512                       # number of demand (read+write) MSHR misses (Count)
system.l2cache.overallMshrMisses::cpu.inst          570                       # number of overall MSHR misses (Count)
system.l2cache.overallMshrMisses::cpu.data    165740942                       # number of overall MSHR misses (Count)
system.l2cache.overallMshrMisses::total     165741512                       # number of overall MSHR misses (Count)
system.l2cache.demandMshrMissLatency::cpu.inst    103883000                       # number of demand (read+write) MSHR miss ticks (Tick)
system.l2cache.demandMshrMissLatency::cpu.data 29439692989000                       # number of demand (read+write) MSHR miss ticks (Tick)
system.l2cache.demandMshrMissLatency::total 29439796872000                       # number of demand (read+write) MSHR miss ticks (Tick)
system.l2cache.overallMshrMissLatency::cpu.inst    103883000                       # number of overall MSHR miss ticks (Tick)
system.l2cache.overallMshrMissLatency::cpu.data 29439692989000                       # number of overall MSHR miss ticks (Tick)
system.l2cache.overallMshrMissLatency::total 29439796872000                       # number of overall MSHR miss ticks (Tick)
system.l2cache.demandMshrMissRate::cpu.inst            1                       # mshr miss ratio for demand accesses (Ratio)
system.l2cache.demandMshrMissRate::cpu.data     0.999324                       # mshr miss ratio for demand accesses (Ratio)
system.l2cache.demandMshrMissRate::total     0.999324                       # mshr miss ratio for demand accesses (Ratio)
system.l2cache.overallMshrMissRate::cpu.inst            1                       # mshr miss ratio for overall accesses (Ratio)
system.l2cache.overallMshrMissRate::cpu.data     0.999324                       # mshr miss ratio for overall accesses (Ratio)
system.l2cache.overallMshrMissRate::total     0.999324                       # mshr miss ratio for overall accesses (Ratio)
system.l2cache.demandAvgMshrMissLatency::cpu.inst 182250.877193                       # average overall mshr miss latency ((Tick/Count))
system.l2cache.demandAvgMshrMissLatency::cpu.data 177624.747596                       # average overall mshr miss latency ((Tick/Count))
system.l2cache.demandAvgMshrMissLatency::total 177624.763505                       # average overall mshr miss latency ((Tick/Count))
system.l2cache.overallAvgMshrMissLatency::cpu.inst 182250.877193                       # average overall mshr miss latency ((Tick/Count))
system.l2cache.overallAvgMshrMissLatency::cpu.data 177624.747596                       # average overall mshr miss latency ((Tick/Count))
system.l2cache.overallAvgMshrMissLatency::total 177624.763505                       # average overall mshr miss latency ((Tick/Count))
system.l2cache.replacements                 165914483                       # number of replacements (Count)
system.l2cache.CleanEvict.mshrMisses::writebacks           50                       # number of CleanEvict MSHR misses (Count)
system.l2cache.CleanEvict.mshrMisses::total           50                       # number of CleanEvict MSHR misses (Count)
system.l2cache.CleanEvict.mshrMissRate::writebacks          inf                       # mshr miss rate for CleanEvict accesses (Ratio)
system.l2cache.CleanEvict.mshrMissRate::total          inf                       # mshr miss rate for CleanEvict accesses (Ratio)
system.l2cache.ReadExReq.hits::cpu.data             5                       # number of ReadExReq hits (Count)
system.l2cache.ReadExReq.hits::total                5                       # number of ReadExReq hits (Count)
system.l2cache.ReadExReq.misses::cpu.data       452652                       # number of ReadExReq misses (Count)
system.l2cache.ReadExReq.misses::total         452652                       # number of ReadExReq misses (Count)
system.l2cache.ReadExReq.missLatency::cpu.data  90727885000                       # number of ReadExReq miss ticks (Tick)
system.l2cache.ReadExReq.missLatency::total  90727885000                       # number of ReadExReq miss ticks (Tick)
system.l2cache.ReadExReq.accesses::cpu.data       452657                       # number of ReadExReq accesses(hits+misses) (Count)
system.l2cache.ReadExReq.accesses::total       452657                       # number of ReadExReq accesses(hits+misses) (Count)
system.l2cache.ReadExReq.missRate::cpu.data     0.999989                       # miss rate for ReadExReq accesses (Ratio)
system.l2cache.ReadExReq.missRate::total     0.999989                       # miss rate for ReadExReq accesses (Ratio)
system.l2cache.ReadExReq.avgMissLatency::cpu.data 200436.284386                       # average ReadExReq miss latency ((Tick/Count))
system.l2cache.ReadExReq.avgMissLatency::total 200436.284386                       # average ReadExReq miss latency ((Tick/Count))
system.l2cache.ReadExReq.mshrMisses::cpu.data       452652                       # number of ReadExReq MSHR misses (Count)
system.l2cache.ReadExReq.mshrMisses::total       452652                       # number of ReadExReq MSHR misses (Count)
system.l2cache.ReadExReq.mshrMissLatency::cpu.data  81674845000                       # number of ReadExReq MSHR miss ticks (Tick)
system.l2cache.ReadExReq.mshrMissLatency::total  81674845000                       # number of ReadExReq MSHR miss ticks (Tick)
system.l2cache.ReadExReq.mshrMissRate::cpu.data     0.999989                       # mshr miss rate for ReadExReq accesses (Ratio)
system.l2cache.ReadExReq.mshrMissRate::total     0.999989                       # mshr miss rate for ReadExReq accesses (Ratio)
system.l2cache.ReadExReq.avgMshrMissLatency::cpu.data 180436.284386                       # average ReadExReq mshr miss latency ((Tick/Count))
system.l2cache.ReadExReq.avgMshrMissLatency::total 180436.284386                       # average ReadExReq mshr miss latency ((Tick/Count))
system.l2cache.ReadSharedReq.hits::cpu.data       112169                       # number of ReadSharedReq hits (Count)
system.l2cache.ReadSharedReq.hits::total       112169                       # number of ReadSharedReq hits (Count)
system.l2cache.ReadSharedReq.misses::cpu.inst          570                       # number of ReadSharedReq misses (Count)
system.l2cache.ReadSharedReq.misses::cpu.data    165288290                       # number of ReadSharedReq misses (Count)
system.l2cache.ReadSharedReq.misses::total    165288860                       # number of ReadSharedReq misses (Count)
system.l2cache.ReadSharedReq.missLatency::cpu.inst    115283000                       # number of ReadSharedReq miss ticks (Tick)
system.l2cache.ReadSharedReq.missLatency::cpu.data 32663783944000                       # number of ReadSharedReq miss ticks (Tick)
system.l2cache.ReadSharedReq.missLatency::total 32663899227000                       # number of ReadSharedReq miss ticks (Tick)
system.l2cache.ReadSharedReq.accesses::cpu.inst          570                       # number of ReadSharedReq accesses(hits+misses) (Count)
system.l2cache.ReadSharedReq.accesses::cpu.data    165400459                       # number of ReadSharedReq accesses(hits+misses) (Count)
system.l2cache.ReadSharedReq.accesses::total    165401029                       # number of ReadSharedReq accesses(hits+misses) (Count)
system.l2cache.ReadSharedReq.missRate::cpu.inst            1                       # miss rate for ReadSharedReq accesses (Ratio)
system.l2cache.ReadSharedReq.missRate::cpu.data     0.999322                       # miss rate for ReadSharedReq accesses (Ratio)
system.l2cache.ReadSharedReq.missRate::total     0.999322                       # miss rate for ReadSharedReq accesses (Ratio)
system.l2cache.ReadSharedReq.avgMissLatency::cpu.inst 202250.877193                       # average ReadSharedReq miss latency ((Tick/Count))
system.l2cache.ReadSharedReq.avgMissLatency::cpu.data 197617.048032                       # average ReadSharedReq miss latency ((Tick/Count))
system.l2cache.ReadSharedReq.avgMissLatency::total 197617.064011                       # average ReadSharedReq miss latency ((Tick/Count))
system.l2cache.ReadSharedReq.mshrMisses::cpu.inst          570                       # number of ReadSharedReq MSHR misses (Count)
system.l2cache.ReadSharedReq.mshrMisses::cpu.data    165288290                       # number of ReadSharedReq MSHR misses (Count)
system.l2cache.ReadSharedReq.mshrMisses::total    165288860                       # number of ReadSharedReq MSHR misses (Count)
system.l2cache.ReadSharedReq.mshrMissLatency::cpu.inst    103883000                       # number of ReadSharedReq MSHR miss ticks (Tick)
system.l2cache.ReadSharedReq.mshrMissLatency::cpu.data 29358018144000                       # number of ReadSharedReq MSHR miss ticks (Tick)
system.l2cache.ReadSharedReq.mshrMissLatency::total 29358122027000                       # number of ReadSharedReq MSHR miss ticks (Tick)
system.l2cache.ReadSharedReq.mshrMissRate::cpu.inst            1                       # mshr miss rate for ReadSharedReq accesses (Ratio)
system.l2cache.ReadSharedReq.mshrMissRate::cpu.data     0.999322                       # mshr miss rate for ReadSharedReq accesses (Ratio)
system.l2cache.ReadSharedReq.mshrMissRate::total     0.999322                       # mshr miss rate for ReadSharedReq accesses (Ratio)
system.l2cache.ReadSharedReq.avgMshrMissLatency::cpu.inst 182250.877193                       # average ReadSharedReq mshr miss latency ((Tick/Count))
system.l2cache.ReadSharedReq.avgMshrMissLatency::cpu.data 177617.048032                       # average ReadSharedReq mshr miss latency ((Tick/Count))
system.l2cache.ReadSharedReq.avgMshrMissLatency::total 177617.064011                       # average ReadSharedReq mshr miss latency ((Tick/Count))
system.l2cache.WritebackDirty.hits::writebacks       692811                       # number of WritebackDirty hits (Count)
system.l2cache.WritebackDirty.hits::total       692811                       # number of WritebackDirty hits (Count)
system.l2cache.WritebackDirty.accesses::writebacks       692811                       # number of WritebackDirty accesses(hits+misses) (Count)
system.l2cache.WritebackDirty.accesses::total       692811                       # number of WritebackDirty accesses(hits+misses) (Count)
system.l2cache.power_state.pwrStateResidencyTicks::UNDEFINED 73030511277000                       # Cumulative time (in ticks) in various power states (Tick)
system.l2cache.tags.tagsInUse             4095.941202                       # Average ticks per tags in use ((Tick/Count))
system.l2cache.tags.totalRefs               331705861                       # Total number of references to valid blocks. (Count)
system.l2cache.tags.sampledRefs             165918579                       # Sample count of references to valid blocks. (Count)
system.l2cache.tags.avgRefs                  1.999209                       # Average number of references to valid blocks. ((Count/Count))
system.l2cache.tags.warmupTick                 188000                       # The tick when the warmup percentage was hit. (Tick)
system.l2cache.tags.occupancies::writebacks     3.460802                       # Average occupied blocks per tick, per requestor ((Count/Tick))
system.l2cache.tags.occupancies::cpu.inst     0.013484                       # Average occupied blocks per tick, per requestor ((Count/Tick))
system.l2cache.tags.occupancies::cpu.data  4092.466916                       # Average occupied blocks per tick, per requestor ((Count/Tick))
system.l2cache.tags.avgOccs::writebacks      0.000845                       # Average percentage of cache occupancy ((Ratio/Tick))
system.l2cache.tags.avgOccs::cpu.inst        0.000003                       # Average percentage of cache occupancy ((Ratio/Tick))
system.l2cache.tags.avgOccs::cpu.data        0.999137                       # Average percentage of cache occupancy ((Ratio/Tick))
system.l2cache.tags.avgOccs::total           0.999986                       # Average percentage of cache occupancy ((Ratio/Tick))
system.l2cache.tags.occupanciesTaskId::1024         4096                       # Occupied blocks per task id (Count)
system.l2cache.tags.ageTaskId_1024::0              42                       # Occupied blocks per task id, per block age (Count)
system.l2cache.tags.ageTaskId_1024::1             240                       # Occupied blocks per task id, per block age (Count)
system.l2cache.tags.ageTaskId_1024::2            2043                       # Occupied blocks per task id, per block age (Count)
system.l2cache.tags.ageTaskId_1024::3            1771                       # Occupied blocks per task id, per block age (Count)
system.l2cache.tags.ratioOccsTaskId::1024            1                       # Ratio of occupied blocks and all blocks, per task id (Ratio)
system.l2cache.tags.tagAccesses            2819565867                       # Number of tag accesses (Count)
system.l2cache.tags.dataAccesses           2819565867                       # Number of data accesses (Count)
system.l2cache.tags.power_state.pwrStateResidencyTicks::UNDEFINED 73030511277000                       # Cumulative time (in ticks) in various power states (Tick)
system.l3bus.transDist::ReadResp            165288860                       # Transaction distribution (Count)
system.l3bus.transDist::WritebackDirty        1180054                       # Transaction distribution (Count)
system.l3bus.transDist::CleanEvict          330419347                       # Transaction distribution (Count)
system.l3bus.transDist::ReadExReq              452652                       # Transaction distribution (Count)
system.l3bus.transDist::ReadExResp             452652                       # Transaction distribution (Count)
system.l3bus.transDist::ReadSharedReq       165288860                       # Transaction distribution (Count)
system.l3bus.pktCount_system.l2cache.mem_side_port::system.l3cache.cpu_side_port    497219935                       # Packet count per connected requestor and responder (Count)
system.l3bus.pktSize_system.l2cache.mem_side_port::system.l3cache.cpu_side_port  10645218496                       # Cumulative packet size per connected requestor and responder (Byte)
system.l3bus.snoops                         165862490                       # Total snoops (Count)
system.l3bus.snoopTraffic                    37761728                       # Total snoop traffic (Byte)
system.l3bus.snoopFanout::samples           331604002                       # Request fanout histogram (Count)
system.l3bus.snoopFanout::mean               0.000416                       # Request fanout histogram (Count)
system.l3bus.snoopFanout::stdev              0.020390                       # Request fanout histogram (Count)
system.l3bus.snoopFanout::underflows                0      0.00%      0.00% # Request fanout histogram (Count)
system.l3bus.snoopFanout::0                 331466086     99.96%     99.96% # Request fanout histogram (Count)
system.l3bus.snoopFanout::1                    137916      0.04%    100.00% # Request fanout histogram (Count)
system.l3bus.snoopFanout::overflows                 0      0.00%    100.00% # Request fanout histogram (Count)
system.l3bus.snoopFanout::min_value                 0                       # Request fanout histogram (Count)
system.l3bus.snoopFanout::max_value                 1                       # Request fanout histogram (Count)
system.l3bus.snoopFanout::total             331604002                       # Request fanout histogram (Count)
system.l3bus.power_state.pwrStateResidencyTicks::UNDEFINED 73030511277000                       # Cumulative time (in ticks) in various power states (Tick)
system.l3bus.reqLayer0.occupancy         332658477000                       # Layer occupancy (ticks) (Tick)
system.l3bus.reqLayer0.utilization                0.0                       # Layer utilization (Ratio)
system.l3bus.respLayer0.occupancy        497224536000                       # Layer occupancy (ticks) (Tick)
system.l3bus.respLayer0.utilization               0.0                       # Layer utilization (Ratio)
system.l3bus.snoop_filter.totRequests       331478423                       # Total number of requests made to the snoop filter. (Count)
system.l3bus.snoop_filter.hitSingleRequests    165736911                       # Number of requests hitting in the snoop filter with a single holder of the requested data. (Count)
system.l3bus.snoop_filter.hitMultiRequests            0                       # Number of requests hitting in the snoop filter with multiple (>1) holders of the requested data. (Count)
system.l3bus.snoop_filter.totSnoops            137916                       # Total number of snoops made to the snoop filter. (Count)
system.l3bus.snoop_filter.hitSingleSnoops       137916                       # Number of snoops hitting in the snoop filter with a single holder of the requested data. (Count)
system.l3bus.snoop_filter.hitMultiSnoops            0                       # Number of snoops hitting in the snoop filter with multiple (>1) holders of the requested data. (Count)
system.l3cache.demandMisses::cpu.inst             570                       # number of demand (read+write) misses (Count)
system.l3cache.demandMisses::cpu.data       165740942                       # number of demand (read+write) misses (Count)
system.l3cache.demandMisses::total          165741512                       # number of demand (read+write) misses (Count)
system.l3cache.overallMisses::cpu.inst            570                       # number of overall misses (Count)
system.l3cache.overallMisses::cpu.data      165740942                       # number of overall misses (Count)
system.l3cache.overallMisses::total         165741512                       # number of overall misses (Count)
system.l3cache.demandMissLatency::cpu.inst     91343000                       # number of demand (read+write) miss ticks (Tick)
system.l3cache.demandMissLatency::cpu.data 25793392265000                       # number of demand (read+write) miss ticks (Tick)
system.l3cache.demandMissLatency::total  25793483608000                       # number of demand (read+write) miss ticks (Tick)
system.l3cache.overallMissLatency::cpu.inst     91343000                       # number of overall miss ticks (Tick)
system.l3cache.overallMissLatency::cpu.data 25793392265000                       # number of overall miss ticks (Tick)
system.l3cache.overallMissLatency::total 25793483608000                       # number of overall miss ticks (Tick)
system.l3cache.demandAccesses::cpu.inst           570                       # number of demand (read+write) accesses (Count)
system.l3cache.demandAccesses::cpu.data     165740942                       # number of demand (read+write) accesses (Count)
system.l3cache.demandAccesses::total        165741512                       # number of demand (read+write) accesses (Count)
system.l3cache.overallAccesses::cpu.inst          570                       # number of overall (read+write) accesses (Count)
system.l3cache.overallAccesses::cpu.data    165740942                       # number of overall (read+write) accesses (Count)
system.l3cache.overallAccesses::total       165741512                       # number of overall (read+write) accesses (Count)
system.l3cache.demandMissRate::cpu.inst             1                       # miss rate for demand accesses (Ratio)
system.l3cache.demandMissRate::cpu.data             1                       # miss rate for demand accesses (Ratio)
system.l3cache.demandMissRate::total                1                       # miss rate for demand accesses (Ratio)
system.l3cache.overallMissRate::cpu.inst            1                       # miss rate for overall accesses (Ratio)
system.l3cache.overallMissRate::cpu.data            1                       # miss rate for overall accesses (Ratio)
system.l3cache.overallMissRate::total               1                       # miss rate for overall accesses (Ratio)
system.l3cache.demandAvgMissLatency::cpu.inst 160250.877193                       # average overall miss latency in ticks ((Tick/Count))
system.l3cache.demandAvgMissLatency::cpu.data 155624.747596                       # average overall miss latency in ticks ((Tick/Count))
system.l3cache.demandAvgMissLatency::total 155624.763505                       # average overall miss latency in ticks ((Tick/Count))
system.l3cache.overallAvgMissLatency::cpu.inst 160250.877193                       # average overall miss latency ((Tick/Count))
system.l3cache.overallAvgMissLatency::cpu.data 155624.747596                       # average overall miss latency ((Tick/Count))
system.l3cache.overallAvgMissLatency::total 155624.763505                       # average overall miss latency ((Tick/Count))
system.l3cache.blockedCycles::no_mshrs              0                       # number of cycles access was blocked (Cycle)
[...]
system.mem_ctrl.dram.bytesWritten::total     37761728                       # Number of bytes written to this memory (Byte)
system.mem_ctrl.dram.numReads::cpu.inst           570                       # Number of read requests responded to by this memory (Count)
system.mem_ctrl.dram.numReads::cpu.data     165740942                       # Number of read requests responded to by this memory (Count)
system.mem_ctrl.dram.numReads::total        165741512                       # Number of read requests responded to by this memory (Count)
system.mem_ctrl.dram.numWrites::writebacks       590027                       # Number of write requests responded to by this memory (Count)
system.mem_ctrl.dram.numWrites::total          590027                       # Number of write requests responded to by this memory (Count)
system.mem_ctrl.dram.bwRead::cpu.inst             500                       # Total read bandwidth from this memory ((Byte/Second))
system.mem_ctrl.dram.bwRead::cpu.data       145246420                       # Total read bandwidth from this memory ((Byte/Second))
system.mem_ctrl.dram.bwRead::total          145246919                       # Total read bandwidth from this memory ((Byte/Second))
system.mem_ctrl.dram.bwInstRead::cpu.inst          500                       # Instruction read bandwidth from this memory ((Byte/Second))
system.mem_ctrl.dram.bwInstRead::total            500                       # Instruction read bandwidth from this memory ((Byte/Second))
system.mem_ctrl.dram.bwWrite::writebacks       517068                       # Write bandwidth from this memory ((Byte/Second))
system.mem_ctrl.dram.bwWrite::total            517068                       # Write bandwidth from this memory ((Byte/Second))
system.mem_ctrl.dram.bwTotal::writebacks       517068                       # Total bandwidth to/from this memory ((Byte/Second))
system.mem_ctrl.dram.bwTotal::cpu.inst            500                       # Total bandwidth to/from this memory ((Byte/Second))
system.mem_ctrl.dram.bwTotal::cpu.data      145246420                       # Total bandwidth to/from this memory ((Byte/Second))
system.mem_ctrl.dram.bwTotal::total         145763987                       # Total bandwidth to/from this memory ((Byte/Second))
system.mem_ctrl.dram.readBursts             165741491                       # Number of DRAM read bursts (Count)
system.mem_ctrl.dram.writeBursts               589996                       # Number of DRAM write bursts (Count)
system.mem_ctrl.dram.perBankRdBursts::0      10358233                       # Per bank write bursts (Count)
system.mem_ctrl.dram.perBankRdBursts::1      10286538                       # Per bank write bursts (Count)
system.mem_ctrl.dram.perBankRdBursts::2      10286512                       # Per bank write bursts (Count)
system.mem_ctrl.dram.perBankRdBursts::3      10286411                       # Per bank write bursts (Count)
system.mem_ctrl.dram.perBankRdBursts::4      10286463                       # Per bank write bursts (Count)
system.mem_ctrl.dram.perBankRdBursts::5      10286477                       # Per bank write bursts (Count)
system.mem_ctrl.dram.perBankRdBursts::6      10286376                       # Per bank write bursts (Count)
system.mem_ctrl.dram.perBankRdBursts::7      10350246                       # Per bank write bursts (Count)
system.mem_ctrl.dram.perBankRdBursts::8      10414278                       # Per bank write bursts (Count)
system.mem_ctrl.dram.perBankRdBursts::9      10414306                       # Per bank write bursts (Count)
system.mem_ctrl.dram.perBankRdBursts::10     10414262                       # Per bank write bursts (Count)
system.mem_ctrl.dram.perBankRdBursts::11     10414239                       # Per bank write bursts (Count)
system.mem_ctrl.dram.perBankRdBursts::12     10414278                       # Per bank write bursts (Count)
system.mem_ctrl.dram.perBankRdBursts::13     10414279                       # Per bank write bursts (Count)
system.mem_ctrl.dram.perBankRdBursts::14     10414294                       # Per bank write bursts (Count)
system.mem_ctrl.dram.perBankRdBursts::15     10414299                       # Per bank write bursts (Count)
system.mem_ctrl.dram.perBankWrBursts::0         36812                       # Per bank write bursts (Count)
system.mem_ctrl.dram.perBankWrBursts::1         36977                       # Per bank write bursts (Count)
system.mem_ctrl.dram.perBankWrBursts::2         36866                       # Per bank write bursts (Count)
system.mem_ctrl.dram.perBankWrBursts::3         36828                       # Per bank write bursts (Count)
system.mem_ctrl.dram.perBankWrBursts::4         36864                       # Per bank write bursts (Count)
system.mem_ctrl.dram.perBankWrBursts::5         36864                       # Per bank write bursts (Count)
system.mem_ctrl.dram.perBankWrBursts::6         36864                       # Per bank write bursts (Count)
system.mem_ctrl.dram.perBankWrBursts::7         36848                       # Per bank write bursts (Count)
system.mem_ctrl.dram.perBankWrBursts::8         36878                       # Per bank write bursts (Count)
system.mem_ctrl.dram.perBankWrBursts::9         36922                       # Per bank write bursts (Count)
system.mem_ctrl.dram.perBankWrBursts::10        36866                       # Per bank write bursts (Count)
system.mem_ctrl.dram.perBankWrBursts::11        36864                       # Per bank write bursts (Count)
system.mem_ctrl.dram.perBankWrBursts::12        36884                       # Per bank write bursts (Count)
system.mem_ctrl.dram.perBankWrBursts::13        36878                       # Per bank write bursts (Count)
system.mem_ctrl.dram.perBankWrBursts::14        36885                       # Per bank write bursts (Count)
system.mem_ctrl.dram.perBankWrBursts::15        36896                       # Per bank write bursts (Count)
system.mem_ctrl.dram.totQLat             927887641500                       # Total ticks spent queuing (Tick)
system.mem_ctrl.dram.totBusLat           828707455000                       # Total ticks spent in databus transfers (Tick)
system.mem_ctrl.dram.totMemAccLat        4035540597750                       # Total ticks spent from burst creation until serviced by the DRAM (Tick)
system.mem_ctrl.dram.avgQLat                  5598.40                       # Average queueing delay per DRAM burst ((Tick/Count))
system.mem_ctrl.dram.avgBusLat                5000.00                       # Average bus latency per DRAM burst ((Tick/Count))
system.mem_ctrl.dram.avgMemAccLat            24348.40                       # Average memory access latency per DRAM burst ((Tick/Count))
system.mem_ctrl.dram.readRowHits            146730885                       # Number of row buffer hits during reads (Count)
system.mem_ctrl.dram.writeRowHits              523778                       # Number of row buffer hits during writes (Count)
system.mem_ctrl.dram.readRowHitRate             88.53                       # Row buffer hit rate for reads (Ratio)
system.mem_ctrl.dram.writeRowHitRate            88.78                       # Row buffer hit rate for writes (Ratio)
system.mem_ctrl.dram.bytesPerActivate::samples     19076823                       # Bytes accessed per row activation (Byte)
system.mem_ctrl.dram.bytesPerActivate::mean   558.018235                       # Bytes accessed per row activation (Byte)
system.mem_ctrl.dram.bytesPerActivate::gmean   329.066477                       # Bytes accessed per row activation (Byte)
system.mem_ctrl.dram.bytesPerActivate::stdev   442.458212                       # Bytes accessed per row activation (Byte)
system.mem_ctrl.dram.bytesPerActivate::0-127      3193229     16.74%     16.74% # Bytes accessed per row activation (Byte)
system.mem_ctrl.dram.bytesPerActivate::128-255      5659005     29.66%     46.40% # Bytes accessed per row activation (Byte)
system.mem_ctrl.dram.bytesPerActivate::256-383       311957      1.64%     48.04% # Bytes accessed per row activation (Byte)
system.mem_ctrl.dram.bytesPerActivate::384-511       299622      1.57%     49.61% # Bytes accessed per row activation (Byte)
system.mem_ctrl.dram.bytesPerActivate::512-639       300003      1.57%     51.18% # Bytes accessed per row activation (Byte)
system.mem_ctrl.dram.bytesPerActivate::640-767       307161      1.61%     52.79% # Bytes accessed per row activation (Byte)
system.mem_ctrl.dram.bytesPerActivate::768-895       305852      1.60%     54.39% # Bytes accessed per row activation (Byte)
system.mem_ctrl.dram.bytesPerActivate::896-1023       308079      1.61%     56.01% # Bytes accessed per row activation (Byte)
system.mem_ctrl.dram.bytesPerActivate::1024-1151      8391915     43.99%    100.00% # Bytes accessed per row activation (Byte)
system.mem_ctrl.dram.bytesPerActivate::total     19076823                       # Bytes accessed per row activation (Byte)
system.mem_ctrl.dram.bytesRead            10607455424                       # Total bytes read (Byte)
system.mem_ctrl.dram.bytesWritten            37759744                       # Total bytes written (Byte)
system.mem_ctrl.dram.avgRdBW               145.246901                       # Average DRAM read bandwidth in MiBytes/s ((Byte/Second))
system.mem_ctrl.dram.avgWrBW                 0.517041                       # Average DRAM write bandwidth in MiBytes/s ((Byte/Second))
system.mem_ctrl.dram.peakBW                  12800.00                       # Theoretical peak bandwidth in MiByte/s ((Byte/Second))
system.mem_ctrl.dram.busUtil                     1.14                       # Data bus utilization in percentage (Ratio)
system.mem_ctrl.dram.busUtilRead                 1.13                       # Data bus utilization in percentage for reads (Ratio)
system.mem_ctrl.dram.busUtilWrite                0.00                       # Data bus utilization in percentage for writes (Ratio)
system.mem_ctrl.dram.pageHitRate                88.53                       # Row buffer hit rate, read and write combined (Ratio)
system.mem_ctrl.dram.power_state.pwrStateResidencyTicks::UNDEFINED 73030511277000                       # Cumulative time (in ticks) in various power states (Tick)
system.mem_ctrl.dram.rank0.actEnergy      67748418360                       # Energy for activate commands per rank (pJ) (Joule)
system.mem_ctrl.dram.rank0.preEnergy      36009138330                       # Energy for precharge commands per rank (pJ) (Joule)
system.mem_ctrl.dram.rank0.readEnergy    588530607840                       # Energy for read commands per rank (pJ) (Joule)
system.mem_ctrl.dram.rank0.writeEnergy     1539498060                       # Energy for write commands per rank (pJ) (Joule)
system.mem_ctrl.dram.rank0.refreshEnergy 5764966708800.000977                       # Energy for refresh commands per rank (pJ) (Joule)
system.mem_ctrl.dram.rank0.actBackEnergy 16275315219720                       # Energy for active background per rank (pJ) (Joule)
system.mem_ctrl.dram.rank0.preBackEnergy 14338187724480                       # Energy for precharge background per rank (pJ) (Joule)
system.mem_ctrl.dram.rank0.actPowerDownEnergy            0                       # Energy for active power-down per rank (pJ) (Joule)
system.mem_ctrl.dram.rank0.prePowerDownEnergy            0                       # Energy for precharge power-down per rank (pJ) (Joule)
system.mem_ctrl.dram.rank0.selfRefreshEnergy            0                       # Energy for self refresh per rank (pJ) (Joule)
system.mem_ctrl.dram.rank0.totalEnergy   37072297315590                       # Total energy per rank (pJ) (Joule)
system.mem_ctrl.dram.rank0.averagePower    507.627520                       # Core power per rank (mW) (Watt)
system.mem_ctrl.dram.rank0.totalIdleTime            0                       # Total Idle time Per DRAM Rank (Tick)
system.mem_ctrl.dram.rank0.pwrStateTime::IDLE 37086405886000                       # Time in different power states (Tick)
system.mem_ctrl.dram.rank0.pwrStateTime::REF 2438649200000                       # Time in different power states (Tick)
system.mem_ctrl.dram.rank0.pwrStateTime::SREF            0                       # Time in different power states (Tick)
system.mem_ctrl.dram.rank0.pwrStateTime::PRE_PDN            0                       # Time in different power states (Tick)
system.mem_ctrl.dram.rank0.pwrStateTime::ACT 33505456191000                       # Time in different power states (Tick)
system.mem_ctrl.dram.rank0.pwrStateTime::ACT_PDN            0                       # Time in different power states (Tick)
system.mem_ctrl.dram.rank1.actEnergy      68460105000                       # Energy for activate commands per rank (pJ) (Joule)
system.mem_ctrl.dram.rank1.preEnergy      36387404955                       # Energy for precharge commands per rank (pJ) (Joule)
system.mem_ctrl.dram.rank1.readEnergy    594863637900                       # Energy for read commands per rank (pJ) (Joule)
system.mem_ctrl.dram.rank1.writeEnergy     1540281060                       # Energy for write commands per rank (pJ) (Joule)
system.mem_ctrl.dram.rank1.refreshEnergy 5764966708800.000977                       # Energy for refresh commands per rank (pJ) (Joule)
system.mem_ctrl.dram.rank1.actBackEnergy 16440995003880                       # Energy for active background per rank (pJ) (Joule)
system.mem_ctrl.dram.rank1.preBackEnergy 14198667906240                       # Energy for precharge background per rank (pJ) (Joule)
system.mem_ctrl.dram.rank1.actPowerDownEnergy            0                       # Energy for active power-down per rank (pJ) (Joule)
system.mem_ctrl.dram.rank1.prePowerDownEnergy            0                       # Energy for precharge power-down per rank (pJ) (Joule)
system.mem_ctrl.dram.rank1.selfRefreshEnergy            0                       # Energy for self refresh per rank (pJ) (Joule)
system.mem_ctrl.dram.rank1.totalEnergy   37105881047835                       # Total energy per rank (pJ) (Joule)
system.mem_ctrl.dram.rank1.averagePower    508.087379                       # Core power per rank (mW) (Watt)
system.mem_ctrl.dram.rank1.totalIdleTime            0                       # Total Idle time Per DRAM Rank (Tick)
system.mem_ctrl.dram.rank1.pwrStateTime::IDLE 36721752129500                       # Time in different power states (Tick)
system.mem_ctrl.dram.rank1.pwrStateTime::REF 2438649200000                       # Time in different power states (Tick)
system.mem_ctrl.dram.rank1.pwrStateTime::SREF            0                       # Time in different power states (Tick)
system.mem_ctrl.dram.rank1.pwrStateTime::PRE_PDN            0                       # Time in different power states (Tick)
system.mem_ctrl.dram.rank1.pwrStateTime::ACT 33870109947500                       # Time in different power states (Tick)
system.mem_ctrl.dram.rank1.pwrStateTime::ACT_PDN            0                       # Time in different power states (Tick)
system.mem_ctrl.power_state.pwrStateResidencyTicks::UNDEFINED 73030511277000                       # Cumulative time (in ticks) in various power states (Tick)
system.membus.transDist::ReadResp           165288860                       # Transaction distribution (Count)
system.membus.transDist::WritebackDirty        590027                       # Transaction distribution (Count)
system.membus.transDist::CleanEvict         165134596                       # Transaction distribution (Count)
system.membus.transDist::ReadExReq             452652                       # Transaction distribution (Count)
system.membus.transDist::ReadExResp            452652                       # Transaction distribution (Count)
system.membus.transDist::ReadSharedReq      165288860                       # Transaction distribution (Count)
system.membus.pktCount_system.l3cache.mem_side_port::system.mem_ctrl.port    497207647                       # Packet count per connected requestor and responder (Count)
system.membus.pktCount_system.l3cache.mem_side_port::total    497207647                       # Packet count per connected requestor and responder (Count)
system.membus.pktCount::total               497207647                       # Packet count per connected requestor and responder (Count)
system.membus.pktSize_system.l3cache.mem_side_port::system.mem_ctrl.port  10645218496                       # Cumulative packet size per connected requestor and responder (Byte)
system.membus.pktSize_system.l3cache.mem_side_port::total  10645218496                       # Cumulative packet size per connected requestor and responder (Byte)
system.membus.pktSize::total              10645218496                       # Cumulative packet size per connected requestor and responder (Byte)
system.membus.snoops                                0                       # Total snoops (Count)
system.membus.snoopTraffic                          0                       # Total snoop traffic (Byte)
system.membus.snoopFanout::samples          165741512                       # Request fanout histogram (Count)
system.membus.snoopFanout::mean                     0                       # Request fanout histogram (Count)
system.membus.snoopFanout::stdev                    0                       # Request fanout histogram (Count)
system.membus.snoopFanout::underflows               0      0.00%      0.00% # Request fanout histogram (Count)
system.membus.snoopFanout::0                165741512    100.00%    100.00% # Request fanout histogram (Count)
system.membus.snoopFanout::1                        0      0.00%    100.00% # Request fanout histogram (Count)
system.membus.snoopFanout::overflows                0      0.00%    100.00% # Request fanout histogram (Count)
system.membus.snoopFanout::min_value                0                       # Request fanout histogram (Count)
system.membus.snoopFanout::max_value                0                       # Request fanout histogram (Count)
system.membus.snoopFanout::total            165741512                       # Request fanout histogram (Count)
system.membus.power_state.pwrStateResidencyTicks::UNDEFINED 73030511277000                       # Cumulative time (in ticks) in various power states (Tick)
system.membus.reqLayer2.occupancy        333826243000                       # Layer occupancy (ticks) (Tick)
system.membus.reqLayer2.utilization               0.0                       # Layer utilization (Ratio)
system.membus.respLayer1.occupancy       874512708250                       # Layer occupancy (ticks) (Tick)
system.membus.respLayer1.utilization              0.0                       # Layer utilization (Ratio)
system.membus.snoop_filter.totRequests      331466135                       # Total number of requests made to the snoop filter. (Count)
system.membus.snoop_filter.hitSingleRequests    165724623                       # Number of requests hitting in the snoop filter with a single holder of the requested data. (Count)
system.membus.snoop_filter.hitMultiRequests            0                       # Number of requests hitting in the snoop filter with multiple (>1) holders of the requested data. (Count)
system.membus.snoop_filter.totSnoops                0                       # Total number of snoops made to the snoop filter. (Count)
system.membus.snoop_filter.hitSingleSnoops            0                       # Number of snoops hitting in the snoop filter with a single holder of the requested data. (Count)
system.membus.snoop_filter.hitMultiSnoops            0                       # Number of snoops hitting in the snoop filter with multiple (>1) holders of the requested data. (Count)
system.workload.inst.arm                            0                       # number of arm instructions executed (Count)
system.workload.inst.quiesce                        0                       # number of quiesce instructions executed (Count)

---------- End Simulation Statistics   ----------
