
---------- Begin Simulation Statistics ----------
simSeconds                                   3.917061                       # Number of seconds simulated (Second)
simTicks                                 3917061263754                       # Number of ticks simulated (Tick)
finalTick                                3917061263754                       # Number of ticks from beginning of simulation (restored from checkpoints and never reset) (Tick)
simFreq                                  1000000000000                       # The number of ticks per simulated second ((Tick/Second))
hostSeconds                                  44460.73                       # Real time elapsed on the host (Second)
hostTickRate                                 88101595                       # The number of ticks simulated per host second (ticks/s) ((Tick/Second))
hostMemory                                    1257944                       # Number of bytes of host memory used (Byte)
simInsts                                  16149441614                       # Number of instructions simulated (Count)
simOps                                    34271665571                       # Number of ops (including micro ops) simulated (Count)
hostInstRate                                   363229                       # Simulator instruction rate (inst/s) ((Count/Second))
hostOpRate                                     770830                       # Simulator op (including micro ops) rate (op/s) ((Count/Second))
board.cache_hierarchy.l1d-cache-0.demandHits::processor.cores0.core.data      7404006                       # number of demand (read+write) hits (Count)
board.cache_hierarchy.l1d-cache-0.demandHits::total      7404006                       # number of demand (read+write) hits (Count)
board.cache_hierarchy.l1d-cache-0.overallHits::processor.cores0.core.data      7404006                       # number of overall hits (Count)
board.cache_hierarchy.l1d-cache-0.overallHits::total      7404006                       # number of overall hits (Count)
board.cache_hierarchy.l1d-cache-0.demandMisses::processor.cores0.core.data       441312                       # number of demand (read+write) misses (Count)
board.cache_hierarchy.l1d-cache-0.demandMisses::total       441312                       # number of demand (read+write) misses (Count)
board.cache_hierarchy.l1d-cache-0.overallMisses::processor.cores0.core.data       441312                       # number of overall misses (Count)
board.cache_hierarchy.l1d-cache-0.overallMisses::total       441312                       # number of overall misses (Count)
board.cache_hierarchy.l1d-cache-0.demandMissLatency::processor.cores0.core.data   5640440913                       # number of demand (read+write) miss ticks (Tick)
board.cache_hierarchy.l1d-cache-0.demandMissLatency::total   5640440913                       # number of demand (read+write) miss ticks (Tick)
board.cache_hierarchy.l1d-cache-0.overallMissLatency::processor.cores0.core.data   5640440913                       # number of overall miss ticks (Tick)
board.cache_hierarchy.l1d-cache-0.overallMissLatency::total   5640440913                       # number of overall miss ticks (Tick)
board.cache_hierarchy.l1d-cache-0.demandAccesses::processor.cores0.core.data      7845318                       # number of demand (read+write) accesses (Count)
board.cache_hierarchy.l1d-cache-0.demandAccesses::total      7845318                       # number of demand (read+write) accesses (Count)
board.cache_hierarchy.l1d-cache-0.overallAccesses::processor.cores0.core.data      7845318                       # number of overall (read+write) accesses (Count)
board.cache_hierarchy.l1d-cache-0.overallAccesses::total      7845318                       # number of overall (read+write) accesses (Count)
board.cache_hierarchy.l1d-cache-0.demandMissRate::processor.cores0.core.data     0.056252                       # miss rate for demand accesses (Ratio)
board.cache_hierarchy.l1d-cache-0.demandMissRate::total     0.056252                       # miss rate for demand accesses (Ratio)
board.cache_hierarchy.l1d-cache-0.overallMissRate::processor.cores0.core.data     0.056252                       # miss rate for overall accesses (Ratio)
board.cache_hierarchy.l1d-cache-0.overallMissRate::total     0.056252                       # miss rate for overall accesses (Ratio)
board.cache_hierarchy.l1d-cache-0.demandAvgMissLatency::processor.cores0.core.data 12781.073057                       # average overall miss latency in ticks ((Tick/Count))
board.cache_hierarchy.l1d-cache-0.demandAvgMissLatency::total 12781.073057                       # average overall miss latency in ticks ((Tick/Count))
board.cache_hierarchy.l1d-cache-0.overallAvgMissLatency::processor.cores0.core.data 12781.073057                       # average overall miss latency ((Tick/Count))
board.cache_hierarchy.l1d-cache-0.overallAvgMissLatency::total 12781.073057                       # average overall miss latency ((Tick/Count))
board.cache_hierarchy.l1d-cache-0.blockedCycles::no_mshrs            0                       # number of cycles access was blocked (Cycle)
board.cache_hierarchy.l1d-cache-0.blockedCycles::no_wbuffers            0                       # number of cycles access was blocked (Cycle)
board.cache_hierarchy.l1d-cache-0.blockedCycles::no_targets            0                       # number of cycles access was blocked (Cycle)
board.cache_hierarchy.l1d-cache-0.blockedCauses::no_mshrs            0                       # number of times access was blocked (Count)
board.cache_hierarchy.l1d-cache-0.blockedCauses::no_wbuffers            0                       # number of times access was blocked (Count)
board.cache_hierarchy.l1d-cache-0.blockedCauses::no_targets            0                       # number of times access was blocked (Count)
board.cache_hierarchy.l1d-cache-0.avgBlocked::no_mshrs          nan                       # average number of cycles each access was blocked ((Cycle/Count))
board.cache_hierarchy.l1d-cache-0.avgBlocked::no_wbuffers          nan                       # average number of cycles each access was blocked ((Cycle/Count))
board.cache_hierarchy.l1d-cache-0.avgBlocked::no_targets          nan                       # average number of cycles each access was blocked ((Cycle/Count))
board.cache_hierarchy.l1d-cache-0.writebacks::writebacks       452707                       # number of writebacks (Count)
board.cache_hierarchy.l1d-cache-0.writebacks::total       452707                       # number of writebacks (Count)
board.cache_hierarchy.l1d-cache-0.demandMshrHits::processor.cores0.core.data       413902                       # number of demand (read+write) MSHR hits (Count)
board.cache_hierarchy.l1d-cache-0.demandMshrHits::total       413902                       # number of demand (read+write) MSHR hits (Count)
board.cache_hierarchy.l1d-cache-0.overallMshrHits::processor.cores0.core.data       413902                       # number of overall MSHR hits (Count)
board.cache_hierarchy.l1d-cache-0.overallMshrHits::total       413902                       # number of overall MSHR hits (Count)
board.cache_hierarchy.l1d-cache-0.demandMshrMisses::processor.cores0.core.data        27410                       # number of demand (read+write) MSHR misses (Count)
board.cache_hierarchy.l1d-cache-0.demandMshrMisses::total        27410                       # number of demand (read+write) MSHR misses (Count)
board.cache_hierarchy.l1d-cache-0.overallMshrMisses::cache_hierarchy.l1d-cache-0.prefetcher       950408                       # number of overall MSHR misses (Count)
board.cache_hierarchy.l1d-cache-0.overallMshrMisses::processor.cores0.core.data        27410                       # number of overall MSHR misses (Count)
board.cache_hierarchy.l1d-cache-0.overallMshrMisses::total       977818                       # number of overall MSHR misses (Count)
board.cache_hierarchy.l1d-cache-0.demandMshrMissLatency::processor.cores0.core.data   1227945159                       # number of demand (read+write) MSHR miss ticks (Tick)
board.cache_hierarchy.l1d-cache-0.demandMshrMissLatency::total   1227945159                       # number of demand (read+write) MSHR miss ticks (Tick)
board.cache_hierarchy.l1d-cache-0.overallMshrMissLatency::cache_hierarchy.l1d-cache-0.prefetcher  43404972570                       # number of overall MSHR miss ticks (Tick)
board.cache_hierarchy.l1d-cache-0.overallMshrMissLatency::processor.cores0.core.data   1227945159                       # number of overall MSHR miss ticks (Tick)
board.cache_hierarchy.l1d-cache-0.overallMshrMissLatency::total  44632917729                       # number of overall MSHR miss ticks (Tick)
board.cache_hierarchy.l1d-cache-0.demandMshrMissRate::processor.cores0.core.data     0.003494                       # mshr miss ratio for demand accesses (Ratio)
board.cache_hierarchy.l1d-cache-0.demandMshrMissRate::total     0.003494                       # mshr miss ratio for demand accesses (Ratio)
board.cache_hierarchy.l1d-cache-0.overallMshrMissRate::cache_hierarchy.l1d-cache-0.prefetcher          inf                       # mshr miss ratio for overall accesses (Ratio)
board.cache_hierarchy.l1d-cache-0.overallMshrMissRate::processor.cores0.core.data     0.003494                       # mshr miss ratio for overall accesses (Ratio)
board.cache_hierarchy.l1d-cache-0.overallMshrMissRate::total     0.124637                       # mshr miss ratio for overall accesses (Ratio)
board.cache_hierarchy.l1d-cache-0.demandAvgMshrMissLatency::processor.cores0.core.data 44799.166691                       # average overall mshr miss latency ((Tick/Count))
board.cache_hierarchy.l1d-cache-0.demandAvgMshrMissLatency::total 44799.166691                       # average overall mshr miss latency ((Tick/Count))
board.cache_hierarchy.l1d-cache-0.overallAvgMshrMissLatency::cache_hierarchy.l1d-cache-0.prefetcher 45669.830820                       # average overall mshr miss latency ((Tick/Count))
board.cache_hierarchy.l1d-cache-0.overallAvgMshrMissLatency::processor.cores0.core.data 44799.166691                       # average overall mshr miss latency ((Tick/Count))
board.cache_hierarchy.l1d-cache-0.overallAvgMshrMissLatency::total 45645.424536                       # average overall mshr miss latency ((Tick/Count))
board.cache_hierarchy.l1d-cache-0.replacements       977308                       # number of replacements (Count)
board.cache_hierarchy.l1d-cache-0.HardPFReq.mshrMisses::cache_hierarchy.l1d-cache-0.prefetcher       950408                       # number of HardPFReq MSHR misses (Count)
board.cache_hierarchy.l1d-cache-0.HardPFReq.mshrMisses::total       950408                       # number of HardPFReq MSHR misses (Count)
board.cache_hierarchy.l1d-cache-0.HardPFReq.mshrMissLatency::cache_hierarchy.l1d-cache-0.prefetcher  43404972570                       # number of HardPFReq MSHR miss ticks (Tick)
board.cache_hierarchy.l1d-cache-0.HardPFReq.mshrMissLatency::total  43404972570                       # number of HardPFReq MSHR miss ticks (Tick)
board.cache_hierarchy.l1d-cache-0.HardPFReq.mshrMissRate::cache_hierarchy.l1d-cache-0.prefetcher          inf                       # mshr miss rate for HardPFReq accesses (Ratio)
board.cache_hierarchy.l1d-cache-0.HardPFReq.mshrMissRate::total          inf                       # mshr miss rate for HardPFReq accesses (Ratio)
board.cache_hierarchy.l1d-cache-0.HardPFReq.avgMshrMissLatency::cache_hierarchy.l1d-cache-0.prefetcher 45669.830820                       # average HardPFReq mshr miss latency ((Tick/Count))
board.cache_hierarchy.l1d-cache-0.HardPFReq.avgMshrMissLatency::total 45669.830820                       # average HardPFReq mshr miss latency ((Tick/Count))
board.cache_hierarchy.l1d-cache-0.LockedRMWReadReq.hits::processor.cores0.core.data           27                       # number of LockedRMWReadReq hits (Count)
board.cache_hierarchy.l1d-cache-0.LockedRMWReadReq.hits::total           27                       # number of LockedRMWReadReq hits (Count)
board.cache_hierarchy.l1d-cache-0.LockedRMWReadReq.misses::processor.cores0.core.data            2                       # number of LockedRMWReadReq misses (Count)
board.cache_hierarchy.l1d-cache-0.LockedRMWReadReq.misses::total            2                       # number of LockedRMWReadReq misses (Count)
board.cache_hierarchy.l1d-cache-0.LockedRMWReadReq.missLatency::processor.cores0.core.data        83250                       # number of LockedRMWReadReq miss ticks (Tick)
board.cache_hierarchy.l1d-cache-0.LockedRMWReadReq.missLatency::total        83250                       # number of LockedRMWReadReq miss ticks (Tick)
board.cache_hierarchy.l1d-cache-0.LockedRMWReadReq.accesses::processor.cores0.core.data           29                       # number of LockedRMWReadReq accesses(hits+misses) (Count)
board.cache_hierarchy.l1d-cache-0.LockedRMWReadReq.accesses::total           29                       # number of LockedRMWReadReq accesses(hits+misses) (Count)
board.cache_hierarchy.l1d-cache-0.LockedRMWReadReq.missRate::processor.cores0.core.data     0.068966                       # miss rate for LockedRMWReadReq accesses (Ratio)
board.cache_hierarchy.l1d-cache-0.LockedRMWReadReq.missRate::total     0.068966                       # miss rate for LockedRMWReadReq accesses (Ratio)
board.cache_hierarchy.l1d-cache-0.LockedRMWReadReq.avgMissLatency::processor.cores0.core.data        41625                       # average LockedRMWReadReq miss latency ((Tick/Count))
board.cache_hierarchy.l1d-cache-0.LockedRMWReadReq.avgMissLatency::total        41625                       # average LockedRMWReadReq miss latency ((Tick/Count))
board.cache_hierarchy.l1d-cache-0.LockedRMWReadReq.mshrMisses::processor.cores0.core.data            2                       # number of LockedRMWReadReq MSHR misses (Count)
board.cache_hierarchy.l1d-cache-0.LockedRMWReadReq.mshrMisses::total            2                       # number of LockedRMWReadReq MSHR misses (Count)
board.cache_hierarchy.l1d-cache-0.LockedRMWReadReq.mshrMissLatency::processor.cores0.core.data       174825                       # number of LockedRMWReadReq MSHR miss ticks (Tick)
board.cache_hierarchy.l1d-cache-0.LockedRMWReadReq.mshrMissLatency::total       174825                       # number of LockedRMWReadReq MSHR miss ticks (Tick)
board.cache_hierarchy.l1d-cache-0.LockedRMWReadReq.mshrMissRate::processor.cores0.core.data     0.068966                       # mshr miss rate for LockedRMWReadReq accesses (Ratio)
board.cache_hierarchy.l1d-cache-0.LockedRMWReadReq.mshrMissRate::total     0.068966                       # mshr miss rate for LockedRMWReadReq accesses (Ratio)
board.cache_hierarchy.l1d-cache-0.LockedRMWReadReq.avgMshrMissLatency::processor.cores0.core.data 87412.500000                       # average LockedRMWReadReq mshr miss latency ((Tick/Count))
board.cache_hierarchy.l1d-cache-0.LockedRMWReadReq.avgMshrMissLatency::total 87412.500000                       # average LockedRMWReadReq mshr miss latency ((Tick/Count))
board.cache_hierarchy.l1d-cache-0.LockedRMWWriteReq.hits::processor.cores0.core.data           29                       # number of LockedRMWWriteReq hits (Count)
board.cache_hierarchy.l1d-cache-0.LockedRMWWriteReq.hits::total           29                       # number of LockedRMWWriteReq hits (Count)
board.cache_hierarchy.l1d-cache-0.LockedRMWWriteReq.accesses::processor.cores0.core.data           29                       # number of LockedRMWWriteReq accesses(hits+misses) (Count)
board.cache_hierarchy.l1d-cache-0.LockedRMWWriteReq.accesses::total           29                       # number of LockedRMWWriteReq accesses(hits+misses) (Count)
board.cache_hierarchy.l1d-cache-0.ReadReq.hits::processor.cores0.core.data      3780335                       # number of ReadReq hits (Count)
board.cache_hierarchy.l1d-cache-0.ReadReq.hits::total      3780335                       # number of ReadReq hits (Count)
board.cache_hierarchy.l1d-cache-0.ReadReq.misses::processor.cores0.core.data       434074                       # number of ReadReq misses (Count)
board.cache_hierarchy.l1d-cache-0.ReadReq.misses::total       434074                       # number of ReadReq misses (Count)
board.cache_hierarchy.l1d-cache-0.ReadReq.missLatency::processor.cores0.core.data   5314177836                       # number of ReadReq miss ticks (Tick)
board.cache_hierarchy.l1d-cache-0.ReadReq.missLatency::total   5314177836                       # number of ReadReq miss ticks (Tick)
board.cache_hierarchy.l1d-cache-0.ReadReq.accesses::processor.cores0.core.data      4214409                       # number of ReadReq accesses(hits+misses) (Count)
board.cache_hierarchy.l1d-cache-0.ReadReq.accesses::total      4214409                       # number of ReadReq accesses(hits+misses) (Count)
board.cache_hierarchy.l1d-cache-0.ReadReq.missRate::processor.cores0.core.data     0.102998                       # miss rate for ReadReq accesses (Ratio)
board.cache_hierarchy.l1d-cache-0.ReadReq.missRate::total     0.102998                       # miss rate for ReadReq accesses (Ratio)
board.cache_hierarchy.l1d-cache-0.ReadReq.avgMissLatency::processor.cores0.core.data 12242.561950                       # average ReadReq miss latency ((Tick/Count))
board.cache_hierarchy.l1d-cache-0.ReadReq.avgMissLatency::total 12242.561950                       # average ReadReq miss latency ((Tick/Count))
board.cache_hierarchy.l1d-cache-0.ReadReq.mshrHits::processor.cores0.core.data       413858                       # number of ReadReq MSHR hits (Count)
board.cache_hierarchy.l1d-cache-0.ReadReq.mshrHits::total       413858                       # number of ReadReq MSHR hits (Count)
board.cache_hierarchy.l1d-cache-0.ReadReq.mshrMisses::processor.cores0.core.data        20216                       # number of ReadReq MSHR misses (Count)
board.cache_hierarchy.l1d-cache-0.ReadReq.mshrMisses::total        20216                       # number of ReadReq MSHR misses (Count)
board.cache_hierarchy.l1d-cache-0.ReadReq.mshrMissLatency::processor.cores0.core.data    904403691                       # number of ReadReq MSHR miss ticks (Tick)
board.cache_hierarchy.l1d-cache-0.ReadReq.mshrMissLatency::total    904403691                       # number of ReadReq MSHR miss ticks (Tick)
board.cache_hierarchy.l1d-cache-0.ReadReq.mshrMissRate::processor.cores0.core.data     0.004797                       # mshr miss rate for ReadReq accesses (Ratio)
board.cache_hierarchy.l1d-cache-0.ReadReq.mshrMissRate::total     0.004797                       # mshr miss rate for ReadReq accesses (Ratio)
board.cache_hierarchy.l1d-cache-0.ReadReq.avgMshrMissLatency::processor.cores0.core.data 44737.024683                       # average ReadReq mshr miss latency ((Tick/Count))
board.cache_hierarchy.l1d-cache-0.ReadReq.avgMshrMissLatency::total 44737.024683                       # average ReadReq mshr miss latency ((Tick/Count))
board.cache_hierarchy.l1d-cache-0.WriteReq.hits::processor.cores0.core.data      3623671                       # number of WriteReq hits (Count)
board.cache_hierarchy.l1d-cache-0.WriteReq.hits::total      3623671                       # number of WriteReq hits (Count)
board.cache_hierarchy.l1d-cache-0.WriteReq.misses::processor.cores0.core.data         7238                       # number of WriteReq misses (Count)
board.cache_hierarchy.l1d-cache-0.WriteReq.misses::total         7238                       # number of WriteReq misses (Count)
board.cache_hierarchy.l1d-cache-0.WriteReq.missLatency::processor.cores0.core.data    326263077                       # number of WriteReq miss ticks (Tick)
board.cache_hierarchy.l1d-cache-0.WriteReq.missLatency::total    326263077                       # number of WriteReq miss ticks (Tick)
board.cache_hierarchy.l1d-cache-0.WriteReq.accesses::processor.cores0.core.data      3630909                       # number of WriteReq accesses(hits+misses) (Count)
board.cache_hierarchy.l1d-cache-0.WriteReq.accesses::total      3630909                       # number of WriteReq accesses(hits+misses) (Count)
board.cache_hierarchy.l1d-cache-0.WriteReq.missRate::processor.cores0.core.data     0.001993                       # miss rate for WriteReq accesses (Ratio)
board.cache_hierarchy.l1d-cache-0.WriteReq.missRate::total     0.001993                       # miss rate for WriteReq accesses (Ratio)
board.cache_hierarchy.l1d-cache-0.WriteReq.avgMissLatency::processor.cores0.core.data 45076.412959                       # average WriteReq miss latency ((Tick/Count))
board.cache_hierarchy.l1d-cache-0.WriteReq.avgMissLatency::total 45076.412959                       # average WriteReq miss latency ((Tick/Count))
board.cache_hierarchy.l1d-cache-0.WriteReq.mshrHits::processor.cores0.core.data           44                       # number of WriteReq MSHR hits (Count)
board.cache_hierarchy.l1d-cache-0.WriteReq.mshrHits::total           44                       # number of WriteReq MSHR hits (Count)
board.cache_hierarchy.l1d-cache-0.WriteReq.mshrMisses::processor.cores0.core.data         7194                       # number of WriteReq MSHR misses (Count)
board.cache_hierarchy.l1d-cache-0.WriteReq.mshrMisses::total         7194                       # number of WriteReq MSHR misses (Count)
board.cache_hierarchy.l1d-cache-0.WriteReq.mshrMissLatency::processor.cores0.core.data    323541468                       # number of WriteReq MSHR miss ticks (Tick)
board.cache_hierarchy.l1d-cache-0.WriteReq.mshrMissLatency::total    323541468                       # number of WriteReq MSHR miss ticks (Tick)
board.cache_hierarchy.l1d-cache-0.WriteReq.mshrMissRate::processor.cores0.core.data     0.001981                       # mshr miss rate for WriteReq accesses (Ratio)
board.cache_hierarchy.l1d-cache-0.WriteReq.mshrMissRate::total     0.001981                       # mshr miss rate for WriteReq accesses (Ratio)
board.cache_hierarchy.l1d-cache-0.WriteReq.avgMshrMissLatency::processor.cores0.core.data 44973.793161                       # average WriteReq mshr miss latency ((Tick/Count))
board.cache_hierarchy.l1d-cache-0.WriteReq.avgMshrMissLatency::total 44973.793161                       # average WriteReq mshr miss latency ((Tick/Count))
board.cache_hierarchy.l1d-cache-0.power_state.pwrStateResidencyTicks::UNDEFINED 3917061263754                       # Cumulative time (in ticks) in various power states (Tick)
board.cache_hierarchy.l1d-cache-0.prefetcher.demandMshrMisses        27410                       # demands not covered by prefetchs (Count)
board.cache_hierarchy.l1d-cache-0.prefetcher.pfIssued      3436556                       # number of hwpf issued (Count)
board.cache_hierarchy.l1d-cache-0.prefetcher.pfUnused           24                       # number of HardPF blocks evicted w/o reference (Count)
board.cache_hierarchy.l1d-cache-0.prefetcher.pfUseful       536478                       # number of useful prefetch (Count)
board.cache_hierarchy.l1d-cache-0.prefetcher.pfUsefulButMiss            0                       # number of hit on prefetch but cache block is not in an usable state (Count)
board.cache_hierarchy.l1d-cache-0.prefetcher.accuracy     0.156109                       # accuracy of the prefetcher (Count)
board.cache_hierarchy.l1d-cache-0.prefetcher.coverage     0.951391                       # coverage brought by this prefetcher (Count)
board.cache_hierarchy.l1d-cache-0.prefetcher.pfHitInCache      1294860                       # number of prefetches hitting in cache (Count)
board.cache_hierarchy.l1d-cache-0.prefetcher.pfHitInMSHR      1191288                       # number of prefetches hitting in a MSHR (Count)
board.cache_hierarchy.l1d-cache-0.prefetcher.pfHitInWB            0                       # number of prefetches hit in the Write Buffer (Count)
board.cache_hierarchy.l1d-cache-0.prefetcher.pfLate      2486148                       # number of late prefetches (hitting in cache, MSHR or WB) (Count)
board.cache_hierarchy.l1d-cache-0.prefetcher.pfIdentified      3756390                       # number of prefetch candidates identified (Count)
board.cache_hierarchy.l1d-cache-0.prefetcher.pfBufferHit       154941                       # number of redundant prefetches already in prefetch queue (Count)
board.cache_hierarchy.l1d-cache-0.prefetcher.pfInCache            0                       # number of redundant prefetches already in cache/mshr dropped (Count)
board.cache_hierarchy.l1d-cache-0.prefetcher.pfRemovedDemand        83354                       # number of prefetches dropped due to a demand for the same address (Count)
board.cache_hierarchy.l1d-cache-0.prefetcher.pfRemovedFull            0                       # number of prefetches dropped due to prefetch queue size (Count)
board.cache_hierarchy.l1d-cache-0.prefetcher.pfSpanPage       152694                       # number of prefetches that crossed the page (Count)
board.cache_hierarchy.l1d-cache-0.prefetcher.pfUsefulSpanPage        83421                       # number of prefetches that is useful and crossed the page (Count)
board.cache_hierarchy.l1d-cache-0.prefetcher.power_state.pwrStateResidencyTicks::UNDEFINED 3917061263754                       # Cumulative time (in ticks) in various power states (Tick)
board.cache_hierarchy.l1d-cache-0.tags.tagsInUse   511.996379                       # Average ticks per tags in use ((Tick/Count))
board.cache_hierarchy.l1d-cache-0.tags.totalRefs      8381882                       # Total number of references to valid blocks. (Count)
board.cache_hierarchy.l1d-cache-0.tags.sampledRefs       977820                       # Sample count of references to valid blocks. (Count)
board.cache_hierarchy.l1d-cache-0.tags.avgRefs     8.572009                       # Average number of references to valid blocks. ((Count/Count))
board.cache_hierarchy.l1d-cache-0.tags.warmupTick        93906                       # The tick when the warmup percentage was hit. (Tick)
board.cache_hierarchy.l1d-cache-0.tags.occupancies::cache_hierarchy.l1d-cache-0.prefetcher   475.222273                       # Average occupied blocks per tick, per requestor ((Count/Tick))
board.cache_hierarchy.l1d-cache-0.tags.occupancies::processor.cores0.core.data    36.774106                       # Average occupied blocks per tick, per requestor ((Count/Tick))
board.cache_hierarchy.l1d-cache-0.tags.avgOccs::cache_hierarchy.l1d-cache-0.prefetcher     0.928169                       # Average percentage of cache occupancy ((Ratio/Tick))
board.cache_hierarchy.l1d-cache-0.tags.avgOccs::processor.cores0.core.data     0.071824                       # Average percentage of cache occupancy ((Ratio/Tick))
board.cache_hierarchy.l1d-cache-0.tags.avgOccs::total     0.999993                       # Average percentage of cache occupancy ((Ratio/Tick))
board.cache_hierarchy.l1d-cache-0.tags.occupanciesTaskId::1022          475                       # Occupied blocks per task id (Count)
board.cache_hierarchy.l1d-cache-0.tags.occupanciesTaskId::1024           37                       # Occupied blocks per task id (Count)
board.cache_hierarchy.l1d-cache-0.tags.ageTaskId_1022::4          475                       # Occupied blocks per task id, per block age (Count)
board.cache_hierarchy.l1d-cache-0.tags.ageTaskId_1024::4           37                       # Occupied blocks per task id, per block age (Count)
board.cache_hierarchy.l1d-cache-0.tags.ratioOccsTaskId::1022     0.927734                       # Ratio of occupied blocks and all blocks, per task id (Ratio)
board.cache_hierarchy.l1d-cache-0.tags.ratioOccsTaskId::1024     0.072266                       # Ratio of occupied blocks and all blocks, per task id (Ratio)
board.cache_hierarchy.l1d-cache-0.tags.tagAccesses     63740828                       # Number of tag accesses (Count)
board.cache_hierarchy.l1d-cache-0.tags.dataAccesses     63740828                       # Number of data accesses (Count)
board.cache_hierarchy.l1d-cache-0.tags.power_state.pwrStateResidencyTicks::UNDEFINED 3917061263754                       # Cumulative time (in ticks) in various power states (Tick)
board.cache_hierarchy.l1d-cache-1.demandHits::processor.cores1.core.data   3968071938                       # number of demand (read+write) hits (Count)
board.cache_hierarchy.l1d-cache-1.demandHits::total   3968071938                       # number of demand (read+write) hits (Count)
board.cache_hierarchy.l1d-cache-1.overallHits::processor.cores1.core.data   3968071938                       # number of overall hits (Count)
board.cache_hierarchy.l1d-cache-1.overallHits::total   3968071938                       # number of overall hits (Count)
board.cache_hierarchy.l1d-cache-1.demandMisses::processor.cores1.core.data      3174865                       # number of demand (read+write) misses (Count)
board.cache_hierarchy.l1d-cache-1.demandMisses::total      3174865                       # number of demand (read+write) misses (Count)
board.cache_hierarchy.l1d-cache-1.overallMisses::processor.cores1.core.data      3174865                       # number of overall misses (Count)
board.cache_hierarchy.l1d-cache-1.overallMisses::total      3174865                       # number of overall misses (Count)
board.cache_hierarchy.l1d-cache-1.demandMissLatency::processor.cores1.core.data 137545858125                       # number of demand (read+write) miss ticks (Tick)
board.cache_hierarchy.l1d-cache-1.demandMissLatency::total 137545858125                       # number of demand (read+write) miss ticks (Tick)
board.cache_hierarchy.l1d-cache-1.overallMissLatency::processor.cores1.core.data 137545858125                       # number of overall miss ticks (Tick)
board.cache_hierarchy.l1d-cache-1.overallMissLatency::total 137545858125                       # number of overall miss ticks (Tick)
board.cache_hierarchy.l1d-cache-1.demandAccesses::processor.cores1.core.data   3971246803                       # number of demand (read+write) accesses (Count)
board.cache_hierarchy.l1d-cache-1.demandAccesses::total   3971246803                       # number of demand (read+write) accesses (Count)
board.cache_hierarchy.l1d-cache-1.overallAccesses::processor.cores1.core.data   3971246803                       # number of overall (read+write) accesses (Count)
board.cache_hierarchy.l1d-cache-1.overallAccesses::total   3971246803                       # number of overall (read+write) accesses (Count)
board.cache_hierarchy.l1d-cache-1.demandMissRate::processor.cores1.core.data     0.000799                       # miss rate for demand accesses (Ratio)
board.cache_hierarchy.l1d-cache-1.demandMissRate::total     0.000799                       # miss rate for demand accesses (Ratio)
board.cache_hierarchy.l1d-cache-1.overallMissRate::processor.cores1.core.data     0.000799                       # miss rate for overall accesses (Ratio)
board.cache_hierarchy.l1d-cache-1.overallMissRate::total     0.000799                       # miss rate for overall accesses (Ratio)
board.cache_hierarchy.l1d-cache-1.demandAvgMissLatency::processor.cores1.core.data 43323.372214                       # average overall miss latency in ticks ((Tick/Count))
board.cache_hierarchy.l1d-cache-1.demandAvgMissLatency::total 43323.372214                       # average overall miss latency in ticks ((Tick/Count))
board.cache_hierarchy.l1d-cache-1.overallAvgMissLatency::processor.cores1.core.data 43323.372214                       # average overall miss latency ((Tick/Count))
board.cache_hierarchy.l1d-cache-1.overallAvgMissLatency::total 43323.372214                       # average overall miss latency ((Tick/Count))
board.cache_hierarchy.l1d-cache-1.blockedCycles::no_mshrs            0                       # number of cycles access was blocked (Cycle)
board.cache_hierarchy.l1d-cache-1.blockedCycles::no_wbuffers            0                       # number of cycles access was blocked (Cycle)
board.cache_hierarchy.l1d-cache-1.blockedCycles::no_targets            0                       # number of cycles access was blocked (Cycle)
board.cache_hierarchy.l1d-cache-1.blockedCauses::no_mshrs            0                       # number of times access was blocked (Count)
board.cache_hierarchy.l1d-cache-1.blockedCauses::no_wbuffers            0                       # number of times access was blocked (Count)
board.cache_hierarchy.l1d-cache-1.blockedCauses::no_targets            0                       # number of times access was blocked (Count)
board.cache_hierarchy.l1d-cache-1.avgBlocked::no_mshrs          nan                       # average number of cycles each access was blocked ((Cycle/Count))
board.cache_hierarchy.l1d-cache-1.avgBlocked::no_wbuffers          nan                       # average number of cycles each access was blocked ((Cycle/Count))
board.cache_hierarchy.l1d-cache-1.avgBlocked::no_targets          nan                       # average number of cycles each access was blocked ((Cycle/Count))
board.cache_hierarchy.l1d-cache-1.writebacks::writebacks       590080                       # number of writebacks (Count)
board.cache_hierarchy.l1d-cache-1.writebacks::total       590080                       # number of writebacks (Count)
board.cache_hierarchy.l1d-cache-1.demandMshrHits::processor.cores1.core.data       422456                       # number of demand (read+write) MSHR hits (Count)
board.cache_hierarchy.l1d-cache-1.demandMshrHits::total       422456                       # number of demand (read+write) MSHR hits (Count)
board.cache_hierarchy.l1d-cache-1.overallMshrHits::processor.cores1.core.data       422456                       # number of overall MSHR hits (Count)
board.cache_hierarchy.l1d-cache-1.overallMshrHits::total       422456                       # number of overall MSHR hits (Count)
board.cache_hierarchy.l1d-cache-1.demandMshrMisses::processor.cores1.core.data      2752409                       # number of demand (read+write) MSHR misses (Count)
board.cache_hierarchy.l1d-cache-1.demandMshrMisses::total      2752409                       # number of demand (read+write) MSHR misses (Count)
board.cache_hierarchy.l1d-cache-1.overallMshrMisses::cache_hierarchy.l1d-cache-1.prefetcher    164097416                       # number of overall MSHR misses (Count)
board.cache_hierarchy.l1d-cache-1.overallMshrMisses::processor.cores1.core.data      2752409                       # number of overall MSHR misses (Count)
board.cache_hierarchy.l1d-cache-1.overallMshrMisses::total    166849825                       # number of overall MSHR misses (Count)
board.cache_hierarchy.l1d-cache-1.demandMshrMissLatency::processor.cores1.core.data 131921448498                       # number of demand (read+write) MSHR miss ticks (Tick)
board.cache_hierarchy.l1d-cache-1.demandMshrMissLatency::total 131921448498                       # number of demand (read+write) MSHR miss ticks (Tick)
board.cache_hierarchy.l1d-cache-1.overallMshrMissLatency::cache_hierarchy.l1d-cache-1.prefetcher 1293456340170                       # number of overall MSHR miss ticks (Tick)
board.cache_hierarchy.l1d-cache-1.overallMshrMissLatency::processor.cores1.core.data 131921448498                       # number of overall MSHR miss ticks (Tick)
board.cache_hierarchy.l1d-cache-1.overallMshrMissLatency::total 1425377788668                       # number of overall MSHR miss ticks (Tick)
board.cache_hierarchy.l1d-cache-1.demandMshrMissRate::processor.cores1.core.data     0.000693                       # mshr miss ratio for demand accesses (Ratio)
board.cache_hierarchy.l1d-cache-1.demandMshrMissRate::total     0.000693                       # mshr miss ratio for demand accesses (Ratio)
board.cache_hierarchy.l1d-cache-1.overallMshrMissRate::cache_hierarchy.l1d-cache-1.prefetcher          inf                       # mshr miss ratio for overall accesses (Ratio)
board.cache_hierarchy.l1d-cache-1.overallMshrMissRate::processor.cores1.core.data     0.000693                       # mshr miss ratio for overall accesses (Ratio)
board.cache_hierarchy.l1d-cache-1.overallMshrMissRate::total     0.042014                       # mshr miss ratio for overall accesses (Ratio)
board.cache_hierarchy.l1d-cache-1.demandAvgMshrMissLatency::processor.cores1.core.data 47929.449620                       # average overall mshr miss latency ((Tick/Count))
board.cache_hierarchy.l1d-cache-1.demandAvgMshrMissLatency::total 47929.449620                       # average overall mshr miss latency ((Tick/Count))
board.cache_hierarchy.l1d-cache-1.overallAvgMshrMissLatency::cache_hierarchy.l1d-cache-1.prefetcher  7882.246849                       # average overall mshr miss latency ((Tick/Count))
board.cache_hierarchy.l1d-cache-1.overallAvgMshrMissLatency::processor.cores1.core.data 47929.449620                       # average overall mshr miss latency ((Tick/Count))
board.cache_hierarchy.l1d-cache-1.overallAvgMshrMissLatency::total  8542.878536                       # average overall mshr miss latency ((Tick/Count))
board.cache_hierarchy.l1d-cache-1.replacements    166849317                       # number of replacements (Count)
board.cache_hierarchy.l1d-cache-1.HardPFReq.mshrMisses::cache_hierarchy.l1d-cache-1.prefetcher    164097416                       # number of HardPFReq MSHR misses (Count)
board.cache_hierarchy.l1d-cache-1.HardPFReq.mshrMisses::total    164097416                       # number of HardPFReq MSHR misses (Count)
board.cache_hierarchy.l1d-cache-1.HardPFReq.mshrMissLatency::cache_hierarchy.l1d-cache-1.prefetcher 1293456340170                       # number of HardPFReq MSHR miss ticks (Tick)
board.cache_hierarchy.l1d-cache-1.HardPFReq.mshrMissLatency::total 1293456340170                       # number of HardPFReq MSHR miss ticks (Tick)
board.cache_hierarchy.l1d-cache-1.HardPFReq.mshrMissRate::cache_hierarchy.l1d-cache-1.prefetcher          inf                       # mshr miss rate for HardPFReq accesses (Ratio)
board.cache_hierarchy.l1d-cache-1.HardPFReq.mshrMissRate::total          inf                       # mshr miss rate for HardPFReq accesses (Ratio)
board.cache_hierarchy.l1d-cache-1.HardPFReq.avgMshrMissLatency::cache_hierarchy.l1d-cache-1.prefetcher  7882.246849                       # average HardPFReq mshr miss latency ((Tick/Count))
board.cache_hierarchy.l1d-cache-1.HardPFReq.avgMshrMissLatency::total  7882.246849                       # average HardPFReq mshr miss latency ((Tick/Count))
board.cache_hierarchy.l1d-cache-1.LockedRMWReadReq.hits::processor.cores1.core.data           44                       # number of LockedRMWReadReq hits (Count)
board.cache_hierarchy.l1d-cache-1.LockedRMWReadReq.hits::total           44                       # number of LockedRMWReadReq hits (Count)
board.cache_hierarchy.l1d-cache-1.LockedRMWReadReq.misses::processor.cores1.core.data            4                       # number of LockedRMWReadReq misses (Count)
board.cache_hierarchy.l1d-cache-1.LockedRMWReadReq.misses::total            4                       # number of LockedRMWReadReq misses (Count)
board.cache_hierarchy.l1d-cache-1.LockedRMWReadReq.missLatency::processor.cores1.core.data       154512                       # number of LockedRMWReadReq miss ticks (Tick)
board.cache_hierarchy.l1d-cache-1.LockedRMWReadReq.missLatency::total       154512                       # number of LockedRMWReadReq miss ticks (Tick)
board.cache_hierarchy.l1d-cache-1.LockedRMWReadReq.accesses::processor.cores1.core.data           48                       # number of LockedRMWReadReq accesses(hits+misses) (Count)
board.cache_hierarchy.l1d-cache-1.LockedRMWReadReq.accesses::total           48                       # number of LockedRMWReadReq accesses(hits+misses) (Count)
board.cache_hierarchy.l1d-cache-1.LockedRMWReadReq.missRate::processor.cores1.core.data     0.083333                       # miss rate for LockedRMWReadReq accesses (Ratio)
board.cache_hierarchy.l1d-cache-1.LockedRMWReadReq.missRate::total     0.083333                       # miss rate for LockedRMWReadReq accesses (Ratio)
board.cache_hierarchy.l1d-cache-1.LockedRMWReadReq.avgMissLatency::processor.cores1.core.data        38628                       # average LockedRMWReadReq miss latency ((Tick/Count))
board.cache_hierarchy.l1d-cache-1.LockedRMWReadReq.avgMissLatency::total        38628                       # average LockedRMWReadReq miss latency ((Tick/Count))
board.cache_hierarchy.l1d-cache-1.LockedRMWReadReq.mshrMisses::processor.cores1.core.data            4                       # number of LockedRMWReadReq MSHR misses (Count)
board.cache_hierarchy.l1d-cache-1.LockedRMWReadReq.mshrMisses::total            4                       # number of LockedRMWReadReq MSHR misses (Count)
board.cache_hierarchy.l1d-cache-1.LockedRMWReadReq.mshrMissLatency::processor.cores1.core.data       322344                       # number of LockedRMWReadReq MSHR miss ticks (Tick)
board.cache_hierarchy.l1d-cache-1.LockedRMWReadReq.mshrMissLatency::total       322344                       # number of LockedRMWReadReq MSHR miss ticks (Tick)
board.cache_hierarchy.l1d-cache-1.LockedRMWReadReq.mshrMissRate::processor.cores1.core.data     0.083333                       # mshr miss rate for LockedRMWReadReq accesses (Ratio)
board.cache_hierarchy.l1d-cache-1.LockedRMWReadReq.mshrMissRate::total     0.083333                       # mshr miss rate for LockedRMWReadReq accesses (Ratio)
board.cache_hierarchy.l1d-cache-1.LockedRMWReadReq.avgMshrMissLatency::processor.cores1.core.data        80586                       # average LockedRMWReadReq mshr miss latency ((Tick/Count))
board.cache_hierarchy.l1d-cache-1.LockedRMWReadReq.avgMshrMissLatency::total        80586                       # average LockedRMWReadReq mshr miss latency ((Tick/Count))
board.cache_hierarchy.l1d-cache-1.LockedRMWWriteReq.hits::processor.cores1.core.data           48                       # number of LockedRMWWriteReq hits (Count)
board.cache_hierarchy.l1d-cache-1.LockedRMWWriteReq.hits::total           48                       # number of LockedRMWWriteReq hits (Count)
board.cache_hierarchy.l1d-cache-1.LockedRMWWriteReq.accesses::processor.cores1.core.data           48                       # number of LockedRMWWriteReq accesses(hits+misses) (Count)
board.cache_hierarchy.l1d-cache-1.LockedRMWWriteReq.accesses::total           48                       # number of LockedRMWWriteReq accesses(hits+misses) (Count)
board.cache_hierarchy.l1d-cache-1.ReadReq.hits::processor.cores1.core.data   2643347694                       # number of ReadReq hits (Count)
board.cache_hierarchy.l1d-cache-1.ReadReq.hits::total   2643347694                       # number of ReadReq hits (Count)
board.cache_hierarchy.l1d-cache-1.ReadReq.misses::processor.cores1.core.data      3167601                       # number of ReadReq misses (Count)
board.cache_hierarchy.l1d-cache-1.ReadReq.misses::total      3167601                       # number of ReadReq misses (Count)
board.cache_hierarchy.l1d-cache-1.ReadReq.missLatency::processor.cores1.core.data 137219233743                       # number of ReadReq miss ticks (Tick)
board.cache_hierarchy.l1d-cache-1.ReadReq.missLatency::total 137219233743                       # number of ReadReq miss ticks (Tick)
board.cache_hierarchy.l1d-cache-1.ReadReq.accesses::processor.cores1.core.data   2646515295                       # number of ReadReq accesses(hits+misses) (Count)
board.cache_hierarchy.l1d-cache-1.ReadReq.accesses::total   2646515295                       # number of ReadReq accesses(hits+misses) (Count)
board.cache_hierarchy.l1d-cache-1.ReadReq.missRate::processor.cores1.core.data     0.001197                       # miss rate for ReadReq accesses (Ratio)
board.cache_hierarchy.l1d-cache-1.ReadReq.missRate::total     0.001197                       # miss rate for ReadReq accesses (Ratio)
board.cache_hierarchy.l1d-cache-1.ReadReq.avgMissLatency::processor.cores1.core.data 43319.608039                       # average ReadReq miss latency ((Tick/Count))
board.cache_hierarchy.l1d-cache-1.ReadReq.avgMissLatency::total 43319.608039                       # average ReadReq miss latency ((Tick/Count))
board.cache_hierarchy.l1d-cache-1.ReadReq.mshrHits::processor.cores1.core.data       422413                       # number of ReadReq MSHR hits (Count)
board.cache_hierarchy.l1d-cache-1.ReadReq.mshrHits::total       422413                       # number of ReadReq MSHR hits (Count)
board.cache_hierarchy.l1d-cache-1.ReadReq.mshrMisses::processor.cores1.core.data      2745188                       # number of ReadReq MSHR misses (Count)
board.cache_hierarchy.l1d-cache-1.ReadReq.mshrMisses::total      2745188                       # number of ReadReq MSHR misses (Count)
board.cache_hierarchy.l1d-cache-1.ReadReq.mshrMissLatency::processor.cores1.core.data 131597542062                       # number of ReadReq MSHR miss ticks (Tick)
board.cache_hierarchy.l1d-cache-1.ReadReq.mshrMissLatency::total 131597542062                       # number of ReadReq MSHR miss ticks (Tick)
board.cache_hierarchy.l1d-cache-1.ReadReq.mshrMissRate::processor.cores1.core.data     0.001037                       # mshr miss rate for ReadReq accesses (Ratio)
board.cache_hierarchy.l1d-cache-1.ReadReq.mshrMissRate::total     0.001037                       # mshr miss rate for ReadReq accesses (Ratio)
board.cache_hierarchy.l1d-cache-1.ReadReq.avgMshrMissLatency::processor.cores1.core.data 47937.533627                       # average ReadReq mshr miss latency ((Tick/Count))
board.cache_hierarchy.l1d-cache-1.ReadReq.avgMshrMissLatency::total 47937.533627                       # average ReadReq mshr miss latency ((Tick/Count))
board.cache_hierarchy.l1d-cache-1.WriteReq.hits::processor.cores1.core.data   1324724244                       # number of WriteReq hits (Count)
board.cache_hierarchy.l1d-cache-1.WriteReq.hits::total   1324724244                       # number of WriteReq hits (Count)
board.cache_hierarchy.l1d-cache-1.WriteReq.misses::processor.cores1.core.data         7264                       # number of WriteReq misses (Count)
board.cache_hierarchy.l1d-cache-1.WriteReq.misses::total         7264                       # number of WriteReq misses (Count)
board.cache_hierarchy.l1d-cache-1.WriteReq.missLatency::processor.cores1.core.data    326624382                       # number of WriteReq miss ticks (Tick)
board.cache_hierarchy.l1d-cache-1.WriteReq.missLatency::total    326624382                       # number of WriteReq miss ticks (Tick)
board.cache_hierarchy.l1d-cache-1.WriteReq.accesses::processor.cores1.core.data   1324731508                       # number of WriteReq accesses(hits+misses) (Count)
board.cache_hierarchy.l1d-cache-1.WriteReq.accesses::total   1324731508                       # number of WriteReq accesses(hits+misses) (Count)
board.cache_hierarchy.l1d-cache-1.WriteReq.missRate::processor.cores1.core.data     0.000005                       # miss rate for WriteReq accesses (Ratio)
board.cache_hierarchy.l1d-cache-1.WriteReq.missRate::total     0.000005                       # miss rate for WriteReq accesses (Ratio)
board.cache_hierarchy.l1d-cache-1.WriteReq.avgMissLatency::processor.cores1.core.data 44964.810297                       # average WriteReq miss latency ((Tick/Count))
board.cache_hierarchy.l1d-cache-1.WriteReq.avgMissLatency::total 44964.810297                       # average WriteReq miss latency ((Tick/Count))
board.cache_hierarchy.l1d-cache-1.WriteReq.mshrHits::processor.cores1.core.data           43                       # number of WriteReq MSHR hits (Count)
board.cache_hierarchy.l1d-cache-1.WriteReq.mshrHits::total           43                       # number of WriteReq MSHR hits (Count)
board.cache_hierarchy.l1d-cache-1.WriteReq.mshrMisses::processor.cores1.core.data         7221                       # number of WriteReq MSHR misses (Count)
board.cache_hierarchy.l1d-cache-1.WriteReq.mshrMisses::total         7221                       # number of WriteReq MSHR misses (Count)
board.cache_hierarchy.l1d-cache-1.WriteReq.mshrMissLatency::processor.cores1.core.data    323906436                       # number of WriteReq MSHR miss ticks (Tick)
board.cache_hierarchy.l1d-cache-1.WriteReq.mshrMissLatency::total    323906436                       # number of WriteReq MSHR miss ticks (Tick)
board.cache_hierarchy.l1d-cache-1.WriteReq.mshrMissRate::processor.cores1.core.data     0.000005                       # mshr miss rate for WriteReq accesses (Ratio)
board.cache_hierarchy.l1d-cache-1.WriteReq.mshrMissRate::total     0.000005                       # mshr miss rate for WriteReq accesses (Ratio)
board.cache_hierarchy.l1d-cache-1.WriteReq.avgMshrMissLatency::processor.cores1.core.data 44856.174491                       # average WriteReq mshr miss latency ((Tick/Count))
board.cache_hierarchy.l1d-cache-1.WriteReq.avgMshrMissLatency::total 44856.174491                       # average WriteReq mshr miss latency ((Tick/Count))
board.cache_hierarchy.l1d-cache-1.power_state.pwrStateResidencyTicks::UNDEFINED 3917061263754                       # Cumulative time (in ticks) in various power states (Tick)
board.cache_hierarchy.l1d-cache-1.prefetcher.demandMshrMisses      2752409                       # demands not covered by prefetchs (Count)
board.cache_hierarchy.l1d-cache-1.prefetcher.pfIssued    638856691                       # number of hwpf issued (Count)
board.cache_hierarchy.l1d-cache-1.prefetcher.pfUnused       584432                       # number of HardPF blocks evicted w/o reference (Count)
board.cache_hierarchy.l1d-cache-1.prefetcher.pfUseful    163090524                       # number of useful prefetch (Count)
board.cache_hierarchy.l1d-cache-1.prefetcher.pfUsefulButMiss            0                       # number of hit on prefetch but cache block is not in an usable state (Count)
board.cache_hierarchy.l1d-cache-1.prefetcher.accuracy     0.255285                       # accuracy of the prefetcher (Count)
board.cache_hierarchy.l1d-cache-1.prefetcher.coverage     0.983404                       # coverage brought by this prefetcher (Count)
board.cache_hierarchy.l1d-cache-1.prefetcher.pfHitInCache    473461199                       # number of prefetches hitting in cache (Count)
board.cache_hierarchy.l1d-cache-1.prefetcher.pfHitInMSHR      1298076                       # number of prefetches hitting in a MSHR (Count)
board.cache_hierarchy.l1d-cache-1.prefetcher.pfHitInWB            0                       # number of prefetches hit in the Write Buffer (Count)
board.cache_hierarchy.l1d-cache-1.prefetcher.pfLate    474759275                       # number of late prefetches (hitting in cache, MSHR or WB) (Count)
board.cache_hierarchy.l1d-cache-1.prefetcher.pfIdentified    639081456                       # number of prefetch candidates identified (Count)
board.cache_hierarchy.l1d-cache-1.prefetcher.pfBufferHit       113731                       # number of redundant prefetches already in prefetch queue (Count)
board.cache_hierarchy.l1d-cache-1.prefetcher.pfInCache            0                       # number of redundant prefetches already in cache/mshr dropped (Count)
board.cache_hierarchy.l1d-cache-1.prefetcher.pfRemovedDemand        55521                       # number of prefetches dropped due to a demand for the same address (Count)
board.cache_hierarchy.l1d-cache-1.prefetcher.pfRemovedFull            0                       # number of prefetches dropped due to prefetch queue size (Count)
board.cache_hierarchy.l1d-cache-1.prefetcher.pfSpanPage     25977604                       # number of prefetches that crossed the page (Count)
board.cache_hierarchy.l1d-cache-1.prefetcher.pfUsefulSpanPage     25872015                       # number of prefetches that is useful and crossed the page (Count)
board.cache_hierarchy.l1d-cache-1.prefetcher.power_state.pwrStateResidencyTicks::UNDEFINED 3917061263754                       # Cumulative time (in ticks) in various power states (Tick)
board.cache_hierarchy.l1d-cache-1.tags.tagsInUse   511.996383                       # Average ticks per tags in use ((Tick/Count))
board.cache_hierarchy.l1d-cache-1.tags.totalRefs   4134921859                       # Total number of references to valid blocks. (Count)
board.cache_hierarchy.l1d-cache-1.tags.sampledRefs    166849829                       # Sample count of references to valid blocks. (Count)
board.cache_hierarchy.l1d-cache-1.tags.avgRefs    24.782296                       # Average number of references to valid blocks. ((Count/Count))
board.cache_hierarchy.l1d-cache-1.tags.warmupTick        88911                       # The tick when the warmup percentage was hit. (Tick)
board.cache_hierarchy.l1d-cache-1.tags.occupancies::cache_hierarchy.l1d-cache-1.prefetcher   501.850917                       # Average occupied blocks per tick, per requestor ((Count/Tick))
board.cache_hierarchy.l1d-cache-1.tags.occupancies::processor.cores1.core.data    10.145466                       # Average occupied blocks per tick, per requestor ((Count/Tick))
board.cache_hierarchy.l1d-cache-1.tags.avgOccs::cache_hierarchy.l1d-cache-1.prefetcher     0.980178                       # Average percentage of cache occupancy ((Ratio/Tick))
board.cache_hierarchy.l1d-cache-1.tags.avgOccs::processor.cores1.core.data     0.019815                       # Average percentage of cache occupancy ((Ratio/Tick))
board.cache_hierarchy.l1d-cache-1.tags.avgOccs::total     0.999993                       # Average percentage of cache occupancy ((Ratio/Tick))
board.cache_hierarchy.l1d-cache-1.tags.occupanciesTaskId::1022          391                       # Occupied blocks per task id (Count)
board.cache_hierarchy.l1d-cache-1.tags.occupanciesTaskId::1024          121                       # Occupied blocks per task id (Count)
board.cache_hierarchy.l1d-cache-1.tags.ageTaskId_1022::1          257                       # Occupied blocks per task id, per block age (Count)
board.cache_hierarchy.l1d-cache-1.tags.ageTaskId_1022::3          134                       # Occupied blocks per task id, per block age (Count)
board.cache_hierarchy.l1d-cache-1.tags.ageTaskId_1024::0           35                       # Occupied blocks per task id, per block age (Count)
board.cache_hierarchy.l1d-cache-1.tags.ageTaskId_1024::1           83                       # Occupied blocks per task id, per block age (Count)
board.cache_hierarchy.l1d-cache-1.tags.ageTaskId_1024::3            3                       # Occupied blocks per task id, per block age (Count)
board.cache_hierarchy.l1d-cache-1.tags.ratioOccsTaskId::1022     0.763672                       # Ratio of occupied blocks and all blocks, per task id (Ratio)
board.cache_hierarchy.l1d-cache-1.tags.ratioOccsTaskId::1024     0.236328                       # Ratio of occupied blocks and all blocks, per task id (Ratio)
board.cache_hierarchy.l1d-cache-1.tags.tagAccesses  31936825021                       # Number of tag accesses (Count)
board.cache_hierarchy.l1d-cache-1.tags.dataAccesses  31936825021                       # Number of data accesses (Count)
board.cache_hierarchy.l1d-cache-1.tags.power_state.pwrStateResidencyTicks::UNDEFINED 3917061263754                       # Cumulative time (in ticks) in various power states (Tick)
board.cache_hierarchy.l1d-cache-2.demandHits::processor.cores2.core.data   3968049500                       # number of demand (read+write) hits (Count)
board.cache_hierarchy.l1d-cache-2.demandHits::total   3968049500                       # number of demand (read+write) hits (Count)
board.cache_hierarchy.l1d-cache-2.overallHits::processor.cores2.core.data   3968049500                       # number of overall hits (Count)
board.cache_hierarchy.l1d-cache-2.overallHits::total   3968049500                       # number of overall hits (Count)
board.cache_hierarchy.l1d-cache-2.demandMisses::processor.cores2.core.data      3197303                       # number of demand (read+write) misses (Count)
board.cache_hierarchy.l1d-cache-2.demandMisses::total      3197303                       # number of demand (read+write) misses (Count)
board.cache_hierarchy.l1d-cache-2.overallMisses::processor.cores2.core.data      3197303                       # number of overall misses (Count)
board.cache_hierarchy.l1d-cache-2.overallMisses::total      3197303                       # number of overall misses (Count)
board.cache_hierarchy.l1d-cache-2.demandMissLatency::processor.cores2.core.data 137558517120                       # number of demand (read+write) miss ticks (Tick)
board.cache_hierarchy.l1d-cache-2.demandMissLatency::total 137558517120                       # number of demand (read+write) miss ticks (Tick)
board.cache_hierarchy.l1d-cache-2.overallMissLatency::processor.cores2.core.data 137558517120                       # number of overall miss ticks (Tick)
board.cache_hierarchy.l1d-cache-2.overallMissLatency::total 137558517120                       # number of overall miss ticks (Tick)
board.cache_hierarchy.l1d-cache-2.demandAccesses::processor.cores2.core.data   3971246803                       # number of demand (read+write) accesses (Count)
board.cache_hierarchy.l1d-cache-2.demandAccesses::total   3971246803                       # number of demand (read+write) accesses (Count)
board.cache_hierarchy.l1d-cache-2.overallAccesses::processor.cores2.core.data   3971246803                       # number of overall (read+write) accesses (Count)
board.cache_hierarchy.l1d-cache-2.overallAccesses::total   3971246803                       # number of overall (read+write) accesses (Count)
board.cache_hierarchy.l1d-cache-2.demandMissRate::processor.cores2.core.data     0.000805                       # miss rate for demand accesses (Ratio)
board.cache_hierarchy.l1d-cache-2.demandMissRate::total     0.000805                       # miss rate for demand accesses (Ratio)
board.cache_hierarchy.l1d-cache-2.overallMissRate::processor.cores2.core.data     0.000805                       # miss rate for overall accesses (Ratio)
board.cache_hierarchy.l1d-cache-2.overallMissRate::total     0.000805                       # miss rate for overall accesses (Ratio)
board.cache_hierarchy.l1d-cache-2.demandAvgMissLatency::processor.cores2.core.data 43023.297173                       # average overall miss latency in ticks ((Tick/Count))
board.cache_hierarchy.l1d-cache-2.demandAvgMissLatency::total 43023.297173                       # average overall miss latency in ticks ((Tick/Count))
board.cache_hierarchy.l1d-cache-2.overallAvgMissLatency::processor.cores2.core.data 43023.297173                       # average overall miss latency ((Tick/Count))
board.cache_hierarchy.l1d-cache-2.overallAvgMissLatency::total 43023.297173                       # average overall miss latency ((Tick/Count))
board.cache_hierarchy.l1d-cache-2.blockedCycles::no_mshrs            0                       # number of cycles access was blocked (Cycle)
board.cache_hierarchy.l1d-cache-2.blockedCycles::no_wbuffers            0                       # number of cycles access was blocked (Cycle)
board.cache_hierarchy.l1d-cache-2.blockedCycles::no_targets            0                       # number of cycles access was blocked (Cycle)
board.cache_hierarchy.l1d-cache-2.blockedCauses::no_mshrs            0                       # number of times access was blocked (Count)
board.cache_hierarchy.l1d-cache-2.blockedCauses::no_wbuffers            0                       # number of times access was blocked (Count)
board.cache_hierarchy.l1d-cache-2.blockedCauses::no_targets            0                       # number of times access was blocked (Count)
board.cache_hierarchy.l1d-cache-2.avgBlocked::no_mshrs          nan                       # average number of cycles each access was blocked ((Cycle/Count))
board.cache_hierarchy.l1d-cache-2.avgBlocked::no_wbuffers          nan                       # average number of cycles each access was blocked ((Cycle/Count))
board.cache_hierarchy.l1d-cache-2.avgBlocked::no_targets          nan                       # average number of cycles each access was blocked ((Cycle/Count))
board.cache_hierarchy.l1d-cache-2.writebacks::writebacks       590078                       # number of writebacks (Count)
board.cache_hierarchy.l1d-cache-2.writebacks::total       590078                       # number of writebacks (Count)
board.cache_hierarchy.l1d-cache-2.demandMshrHits::processor.cores2.core.data       439465                       # number of demand (read+write) MSHR hits (Count)
board.cache_hierarchy.l1d-cache-2.demandMshrHits::total       439465                       # number of demand (read+write) MSHR hits (Count)
board.cache_hierarchy.l1d-cache-2.overallMshrHits::processor.cores2.core.data       439465                       # number of overall MSHR hits (Count)
board.cache_hierarchy.l1d-cache-2.overallMshrHits::total       439465                       # number of overall MSHR hits (Count)
board.cache_hierarchy.l1d-cache-2.demandMshrMisses::processor.cores2.core.data      2757838                       # number of demand (read+write) MSHR misses (Count)
board.cache_hierarchy.l1d-cache-2.demandMshrMisses::total      2757838                       # number of demand (read+write) MSHR misses (Count)
board.cache_hierarchy.l1d-cache-2.overallMshrMisses::cache_hierarchy.l1d-cache-2.prefetcher    164091987                       # number of overall MSHR misses (Count)
board.cache_hierarchy.l1d-cache-2.overallMshrMisses::processor.cores2.core.data      2757838                       # number of overall MSHR misses (Count)
board.cache_hierarchy.l1d-cache-2.overallMshrMisses::total    166849825                       # number of overall MSHR misses (Count)
board.cache_hierarchy.l1d-cache-2.demandMshrMissLatency::processor.cores2.core.data 132172050312                       # number of demand (read+write) MSHR miss ticks (Tick)
board.cache_hierarchy.l1d-cache-2.demandMshrMissLatency::total 132172050312                       # number of demand (read+write) MSHR miss ticks (Tick)
board.cache_hierarchy.l1d-cache-2.overallMshrMissLatency::cache_hierarchy.l1d-cache-2.prefetcher 1283427869432                       # number of overall MSHR miss ticks (Tick)
board.cache_hierarchy.l1d-cache-2.overallMshrMissLatency::processor.cores2.core.data 132172050312                       # number of overall MSHR miss ticks (Tick)
board.cache_hierarchy.l1d-cache-2.overallMshrMissLatency::total 1415599919744                       # number of overall MSHR miss ticks (Tick)
board.cache_hierarchy.l1d-cache-2.demandMshrMissRate::processor.cores2.core.data     0.000694                       # mshr miss ratio for demand accesses (Ratio)
board.cache_hierarchy.l1d-cache-2.demandMshrMissRate::total     0.000694                       # mshr miss ratio for demand accesses (Ratio)
board.cache_hierarchy.l1d-cache-2.overallMshrMissRate::cache_hierarchy.l1d-cache-2.prefetcher          inf                       # mshr miss ratio for overall accesses (Ratio)
board.cache_hierarchy.l1d-cache-2.overallMshrMissRate::processor.cores2.core.data     0.000694                       # mshr miss ratio for overall accesses (Ratio)
board.cache_hierarchy.l1d-cache-2.overallMshrMissRate::total     0.042014                       # mshr miss ratio for overall accesses (Ratio)
board.cache_hierarchy.l1d-cache-2.demandAvgMshrMissLatency::processor.cores2.core.data 47925.966033                       # average overall mshr miss latency ((Tick/Count))
board.cache_hierarchy.l1d-cache-2.demandAvgMshrMissLatency::total 47925.966033                       # average overall mshr miss latency ((Tick/Count))
board.cache_hierarchy.l1d-cache-2.overallAvgMshrMissLatency::cache_hierarchy.l1d-cache-2.prefetcher  7821.392701                       # average overall mshr miss latency ((Tick/Count))
board.cache_hierarchy.l1d-cache-2.overallAvgMshrMissLatency::processor.cores2.core.data 47925.966033                       # average overall mshr miss latency ((Tick/Count))
board.cache_hierarchy.l1d-cache-2.overallAvgMshrMissLatency::total  8484.275724                       # average overall mshr miss latency ((Tick/Count))
board.cache_hierarchy.l1d-cache-2.replacements    166849317                       # number of replacements (Count)
board.cache_hierarchy.l1d-cache-2.HardPFReq.mshrMisses::cache_hierarchy.l1d-cache-2.prefetcher    164091987                       # number of HardPFReq MSHR misses (Count)
board.cache_hierarchy.l1d-cache-2.HardPFReq.mshrMisses::total    164091987                       # number of HardPFReq MSHR misses (Count)
board.cache_hierarchy.l1d-cache-2.HardPFReq.mshrMissLatency::cache_hierarchy.l1d-cache-2.prefetcher 1283427869432                       # number of HardPFReq MSHR miss ticks (Tick)
board.cache_hierarchy.l1d-cache-2.HardPFReq.mshrMissLatency::total 1283427869432                       # number of HardPFReq MSHR miss ticks (Tick)
board.cache_hierarchy.l1d-cache-2.HardPFReq.mshrMissRate::cache_hierarchy.l1d-cache-2.prefetcher          inf                       # mshr miss rate for HardPFReq accesses (Ratio)
board.cache_hierarchy.l1d-cache-2.HardPFReq.mshrMissRate::total          inf                       # mshr miss rate for HardPFReq accesses (Ratio)
board.cache_hierarchy.l1d-cache-2.HardPFReq.avgMshrMissLatency::cache_hierarchy.l1d-cache-2.prefetcher  7821.392701                       # average HardPFReq mshr miss latency ((Tick/Count))
board.cache_hierarchy.l1d-cache-2.HardPFReq.avgMshrMissLatency::total  7821.392701                       # average HardPFReq mshr miss latency ((Tick/Count))
board.cache_hierarchy.l1d-cache-2.LockedRMWReadReq.hits::processor.cores2.core.data           44                       # number of LockedRMWReadReq hits (Count)
board.cache_hierarchy.l1d-cache-2.LockedRMWReadReq.hits::total           44                       # number of LockedRMWReadReq hits (Count)
board.cache_hierarchy.l1d-cache-2.LockedRMWReadReq.misses::processor.cores2.core.data            4                       # number of LockedRMWReadReq misses (Count)
board.cache_hierarchy.l1d-cache-2.LockedRMWReadReq.misses::total            4                       # number of LockedRMWReadReq misses (Count)
board.cache_hierarchy.l1d-cache-2.LockedRMWReadReq.missLatency::processor.cores2.core.data        86580                       # number of LockedRMWReadReq miss ticks (Tick)
board.cache_hierarchy.l1d-cache-2.LockedRMWReadReq.missLatency::total        86580                       # number of LockedRMWReadReq miss ticks (Tick)
board.cache_hierarchy.l1d-cache-2.LockedRMWReadReq.accesses::processor.cores2.core.data           48                       # number of LockedRMWReadReq accesses(hits+misses) (Count)
board.cache_hierarchy.l1d-cache-2.LockedRMWReadReq.accesses::total           48                       # number of LockedRMWReadReq accesses(hits+misses) (Count)
board.cache_hierarchy.l1d-cache-2.LockedRMWReadReq.missRate::processor.cores2.core.data     0.083333                       # miss rate for LockedRMWReadReq accesses (Ratio)
board.cache_hierarchy.l1d-cache-2.LockedRMWReadReq.missRate::total     0.083333                       # miss rate for LockedRMWReadReq accesses (Ratio)
board.cache_hierarchy.l1d-cache-2.LockedRMWReadReq.avgMissLatency::processor.cores2.core.data        21645                       # average LockedRMWReadReq miss latency ((Tick/Count))
board.cache_hierarchy.l1d-cache-2.LockedRMWReadReq.avgMissLatency::total        21645                       # average LockedRMWReadReq miss latency ((Tick/Count))
board.cache_hierarchy.l1d-cache-2.LockedRMWReadReq.mshrMisses::processor.cores2.core.data            4                       # number of LockedRMWReadReq MSHR misses (Count)
board.cache_hierarchy.l1d-cache-2.LockedRMWReadReq.mshrMisses::total            4                       # number of LockedRMWReadReq MSHR misses (Count)
board.cache_hierarchy.l1d-cache-2.LockedRMWReadReq.mshrMissLatency::processor.cores2.core.data       186480                       # number of LockedRMWReadReq MSHR miss ticks (Tick)
board.cache_hierarchy.l1d-cache-2.LockedRMWReadReq.mshrMissLatency::total       186480                       # number of LockedRMWReadReq MSHR miss ticks (Tick)
board.cache_hierarchy.l1d-cache-2.LockedRMWReadReq.mshrMissRate::processor.cores2.core.data     0.083333                       # mshr miss rate for LockedRMWReadReq accesses (Ratio)
board.cache_hierarchy.l1d-cache-2.LockedRMWReadReq.mshrMissRate::total     0.083333                       # mshr miss rate for LockedRMWReadReq accesses (Ratio)
board.cache_hierarchy.l1d-cache-2.LockedRMWReadReq.avgMshrMissLatency::processor.cores2.core.data        46620                       # average LockedRMWReadReq mshr miss latency ((Tick/Count))
board.cache_hierarchy.l1d-cache-2.LockedRMWReadReq.avgMshrMissLatency::total        46620                       # average LockedRMWReadReq mshr miss latency ((Tick/Count))
board.cache_hierarchy.l1d-cache-2.LockedRMWWriteReq.hits::processor.cores2.core.data           48                       # number of LockedRMWWriteReq hits (Count)
board.cache_hierarchy.l1d-cache-2.LockedRMWWriteReq.hits::total           48                       # number of LockedRMWWriteReq hits (Count)
board.cache_hierarchy.l1d-cache-2.LockedRMWWriteReq.accesses::processor.cores2.core.data           48                       # number of LockedRMWWriteReq accesses(hits+misses) (Count)
board.cache_hierarchy.l1d-cache-2.LockedRMWWriteReq.accesses::total           48                       # number of LockedRMWWriteReq accesses(hits+misses) (Count)
board.cache_hierarchy.l1d-cache-2.ReadReq.hits::processor.cores2.core.data   2643325255                       # number of ReadReq hits (Count)
board.cache_hierarchy.l1d-cache-2.ReadReq.hits::total   2643325255                       # number of ReadReq hits (Count)
board.cache_hierarchy.l1d-cache-2.ReadReq.misses::processor.cores2.core.data      3190040                       # number of ReadReq misses (Count)
board.cache_hierarchy.l1d-cache-2.ReadReq.misses::total      3190040                       # number of ReadReq misses (Count)
board.cache_hierarchy.l1d-cache-2.ReadReq.missLatency::processor.cores2.core.data 137231401563                       # number of ReadReq miss ticks (Tick)
board.cache_hierarchy.l1d-cache-2.ReadReq.missLatency::total 137231401563                       # number of ReadReq miss ticks (Tick)
board.cache_hierarchy.l1d-cache-2.ReadReq.accesses::processor.cores2.core.data   2646515295                       # number of ReadReq accesses(hits+misses) (Count)
board.cache_hierarchy.l1d-cache-2.ReadReq.accesses::total   2646515295                       # number of ReadReq accesses(hits+misses) (Count)
board.cache_hierarchy.l1d-cache-2.ReadReq.missRate::processor.cores2.core.data     0.001205                       # miss rate for ReadReq accesses (Ratio)
board.cache_hierarchy.l1d-cache-2.ReadReq.missRate::total     0.001205                       # miss rate for ReadReq accesses (Ratio)
board.cache_hierarchy.l1d-cache-2.ReadReq.avgMissLatency::processor.cores2.core.data 43018.708719                       # average ReadReq miss latency ((Tick/Count))
board.cache_hierarchy.l1d-cache-2.ReadReq.avgMissLatency::total 43018.708719                       # average ReadReq miss latency ((Tick/Count))
board.cache_hierarchy.l1d-cache-2.ReadReq.mshrHits::processor.cores2.core.data       439423                       # number of ReadReq MSHR hits (Count)
board.cache_hierarchy.l1d-cache-2.ReadReq.mshrHits::total       439423                       # number of ReadReq MSHR hits (Count)
board.cache_hierarchy.l1d-cache-2.ReadReq.mshrMisses::processor.cores2.core.data      2750617                       # number of ReadReq MSHR misses (Count)
board.cache_hierarchy.l1d-cache-2.ReadReq.mshrMisses::total      2750617                       # number of ReadReq MSHR misses (Count)
board.cache_hierarchy.l1d-cache-2.ReadReq.mshrMissLatency::processor.cores2.core.data 131847643044                       # number of ReadReq MSHR miss ticks (Tick)
board.cache_hierarchy.l1d-cache-2.ReadReq.mshrMissLatency::total 131847643044                       # number of ReadReq MSHR miss ticks (Tick)
board.cache_hierarchy.l1d-cache-2.ReadReq.mshrMissRate::processor.cores2.core.data     0.001039                       # mshr miss rate for ReadReq accesses (Ratio)
board.cache_hierarchy.l1d-cache-2.ReadReq.mshrMissRate::total     0.001039                       # mshr miss rate for ReadReq accesses (Ratio)
board.cache_hierarchy.l1d-cache-2.ReadReq.avgMshrMissLatency::processor.cores2.core.data 47933.842859                       # average ReadReq mshr miss latency ((Tick/Count))
board.cache_hierarchy.l1d-cache-2.ReadReq.avgMshrMissLatency::total 47933.842859                       # average ReadReq mshr miss latency ((Tick/Count))
board.cache_hierarchy.l1d-cache-2.WriteReq.hits::processor.cores2.core.data   1324724245                       # number of WriteReq hits (Count)
board.cache_hierarchy.l1d-cache-2.WriteReq.hits::total   1324724245                       # number of WriteReq hits (Count)
board.cache_hierarchy.l1d-cache-2.WriteReq.misses::processor.cores2.core.data         7263                       # number of WriteReq misses (Count)
board.cache_hierarchy.l1d-cache-2.WriteReq.misses::total         7263                       # number of WriteReq misses (Count)
board.cache_hierarchy.l1d-cache-2.WriteReq.missLatency::processor.cores2.core.data    327115557                       # number of WriteReq miss ticks (Tick)
board.cache_hierarchy.l1d-cache-2.WriteReq.missLatency::total    327115557                       # number of WriteReq miss ticks (Tick)
board.cache_hierarchy.l1d-cache-2.WriteReq.accesses::processor.cores2.core.data   1324731508                       # number of WriteReq accesses(hits+misses) (Count)
board.cache_hierarchy.l1d-cache-2.WriteReq.accesses::total   1324731508                       # number of WriteReq accesses(hits+misses) (Count)
board.cache_hierarchy.l1d-cache-2.WriteReq.missRate::processor.cores2.core.data     0.000005                       # miss rate for WriteReq accesses (Ratio)
board.cache_hierarchy.l1d-cache-2.WriteReq.missRate::total     0.000005                       # miss rate for WriteReq accesses (Ratio)
board.cache_hierarchy.l1d-cache-2.WriteReq.avgMissLatency::processor.cores2.core.data 45038.628253                       # average WriteReq miss latency ((Tick/Count))
board.cache_hierarchy.l1d-cache-2.WriteReq.avgMissLatency::total 45038.628253                       # average WriteReq miss latency ((Tick/Count))
board.cache_hierarchy.l1d-cache-2.WriteReq.mshrHits::processor.cores2.core.data           42                       # number of WriteReq MSHR hits (Count)
board.cache_hierarchy.l1d-cache-2.WriteReq.mshrHits::total           42                       # number of WriteReq MSHR hits (Count)
board.cache_hierarchy.l1d-cache-2.WriteReq.mshrMisses::processor.cores2.core.data         7221                       # number of WriteReq MSHR misses (Count)
board.cache_hierarchy.l1d-cache-2.WriteReq.mshrMisses::total         7221                       # number of WriteReq MSHR misses (Count)
board.cache_hierarchy.l1d-cache-2.WriteReq.mshrMissLatency::processor.cores2.core.data    324407268                       # number of WriteReq MSHR miss ticks (Tick)
board.cache_hierarchy.l1d-cache-2.WriteReq.mshrMissLatency::total    324407268                       # number of WriteReq MSHR miss ticks (Tick)
board.cache_hierarchy.l1d-cache-2.WriteReq.mshrMissRate::processor.cores2.core.data     0.000005                       # mshr miss rate for WriteReq accesses (Ratio)
board.cache_hierarchy.l1d-cache-2.WriteReq.mshrMissRate::total     0.000005                       # mshr miss rate for WriteReq accesses (Ratio)
board.cache_hierarchy.l1d-cache-2.WriteReq.avgMshrMissLatency::processor.cores2.core.data 44925.532198                       # average WriteReq mshr miss latency ((Tick/Count))
board.cache_hierarchy.l1d-cache-2.WriteReq.avgMshrMissLatency::total 44925.532198                       # average WriteReq mshr miss latency ((Tick/Count))
board.cache_hierarchy.l1d-cache-2.power_state.pwrStateResidencyTicks::UNDEFINED 3917061263754                       # Cumulative time (in ticks) in various power states (Tick)
board.cache_hierarchy.l1d-cache-2.prefetcher.demandMshrMisses      2757838                       # demands not covered by prefetchs (Count)
board.cache_hierarchy.l1d-cache-2.prefetcher.pfIssued    638750928                       # number of hwpf issued (Count)
board.cache_hierarchy.l1d-cache-2.prefetcher.pfUnused       584432                       # number of HardPF blocks evicted w/o reference (Count)
board.cache_hierarchy.l1d-cache-2.prefetcher.pfUseful    163068086                       # number of useful prefetch (Count)
board.cache_hierarchy.l1d-cache-2.prefetcher.pfUsefulButMiss            0                       # number of hit on prefetch but cache block is not in an usable state (Count)
board.cache_hierarchy.l1d-cache-2.prefetcher.accuracy     0.255292                       # accuracy of the prefetcher (Count)
board.cache_hierarchy.l1d-cache-2.prefetcher.coverage     0.983369                       # coverage brought by this prefetcher (Count)
board.cache_hierarchy.l1d-cache-2.prefetcher.pfHitInCache    473469162                       # number of prefetches hitting in cache (Count)
board.cache_hierarchy.l1d-cache-2.prefetcher.pfHitInMSHR      1189779                       # number of prefetches hitting in a MSHR (Count)
board.cache_hierarchy.l1d-cache-2.prefetcher.pfHitInWB            0                       # number of prefetches hit in the Write Buffer (Count)
board.cache_hierarchy.l1d-cache-2.prefetcher.pfLate    474658941                       # number of late prefetches (hitting in cache, MSHR or WB) (Count)
board.cache_hierarchy.l1d-cache-2.prefetcher.pfIdentified    639081456                       # number of prefetch candidates identified (Count)
board.cache_hierarchy.l1d-cache-2.prefetcher.pfBufferHit       164360                       # number of redundant prefetches already in prefetch queue (Count)
board.cache_hierarchy.l1d-cache-2.prefetcher.pfInCache            0                       # number of redundant prefetches already in cache/mshr dropped (Count)
board.cache_hierarchy.l1d-cache-2.prefetcher.pfRemovedDemand        83537                       # number of prefetches dropped due to a demand for the same address (Count)
board.cache_hierarchy.l1d-cache-2.prefetcher.pfRemovedFull            0                       # number of prefetches dropped due to prefetch queue size (Count)
board.cache_hierarchy.l1d-cache-2.prefetcher.pfSpanPage     25977604                       # number of prefetches that crossed the page (Count)
board.cache_hierarchy.l1d-cache-2.prefetcher.pfUsefulSpanPage     25877458                       # number of prefetches that is useful and crossed the page (Count)
board.cache_hierarchy.l1d-cache-2.prefetcher.power_state.pwrStateResidencyTicks::UNDEFINED 3917061263754                       # Cumulative time (in ticks) in various power states (Tick)
board.cache_hierarchy.l1d-cache-2.tags.tagsInUse   511.996389                       # Average ticks per tags in use ((Tick/Count))
board.cache_hierarchy.l1d-cache-2.tags.totalRefs   4134899421                       # Total number of references to valid blocks. (Count)
board.cache_hierarchy.l1d-cache-2.tags.sampledRefs    166849829                       # Sample count of references to valid blocks. (Count)
board.cache_hierarchy.l1d-cache-2.tags.avgRefs    24.782162                       # Average number of references to valid blocks. ((Count/Count))
board.cache_hierarchy.l1d-cache-2.tags.warmupTick        83916                       # The tick when the warmup percentage was hit. (Tick)
[...]
board.processor.cores3.core.commitStats0.committedInstType::SimdCmp            6      0.00%     41.42% # Class of committed instruction. (Count)
board.processor.cores3.core.commitStats0.committedInstType::SimdCvt      3620100      0.03%     41.45% # Class of committed instruction. (Count)
board.processor.cores3.core.commitStats0.committedInstType::SimdMisc     10869862      0.10%     41.54% # Class of committed instruction. (Count)
board.processor.cores3.core.commitStats0.committedInstType::SimdMult     14480000      0.13%     41.67% # Class of committed instruction. (Count)
board.processor.cores3.core.commitStats0.committedInstType::SimdMultAcc            0      0.00%     41.67% # Class of committed instruction. (Count)
board.processor.cores3.core.commitStats0.committedInstType::SimdMatMultAcc            0      0.00%     41.67% # Class of committed instruction. (Count)
board.processor.cores3.core.commitStats0.committedInstType::SimdShift     15146403      0.13%     41.80% # Class of committed instruction. (Count)
board.processor.cores3.core.commitStats0.committedInstType::SimdShiftAcc            0      0.00%     41.80% # Class of committed instruction. (Count)
board.processor.cores3.core.commitStats0.committedInstType::SimdDiv            0      0.00%     41.80% # Class of committed instruction. (Count)
board.processor.cores3.core.commitStats0.committedInstType::SimdSqrt            0      0.00%     41.80% # Class of committed instruction. (Count)
board.processor.cores3.core.commitStats0.committedInstType::SimdFloatAdd   1324194563     11.63%     53.44% # Class of committed instruction. (Count)
board.processor.cores3.core.commitStats0.committedInstType::SimdFloatAlu            0      0.00%     53.44% # Class of committed instruction. (Count)
board.processor.cores3.core.commitStats0.committedInstType::SimdFloatCmp            0      0.00%     53.44% # Class of committed instruction. (Count)
board.processor.cores3.core.commitStats0.committedInstType::SimdFloatCvt      3620007      0.03%     53.47% # Class of committed instruction. (Count)
board.processor.cores3.core.commitStats0.committedInstType::SimdFloatDiv      3620000      0.03%     53.50% # Class of committed instruction. (Count)
board.processor.cores3.core.commitStats0.committedInstType::SimdFloatMisc            0      0.00%     53.50% # Class of committed instruction. (Count)
board.processor.cores3.core.commitStats0.committedInstType::SimdFloatMult   1322300002     11.62%     65.12% # Class of committed instruction. (Count)
board.processor.cores3.core.commitStats0.committedInstType::SimdFloatMultAcc            0      0.00%     65.12% # Class of committed instruction. (Count)
board.processor.cores3.core.commitStats0.committedInstType::SimdFloatMatMultAcc            0      0.00%     65.12% # Class of committed instruction. (Count)
board.processor.cores3.core.commitStats0.committedInstType::SimdFloatSqrt            0      0.00%     65.12% # Class of committed instruction. (Count)
board.processor.cores3.core.commitStats0.committedInstType::SimdReduceAdd            0      0.00%     65.12% # Class of committed instruction. (Count)
board.processor.cores3.core.commitStats0.committedInstType::SimdReduceAlu            0      0.00%     65.12% # Class of committed instruction. (Count)
board.processor.cores3.core.commitStats0.committedInstType::SimdReduceCmp            0      0.00%     65.12% # Class of committed instruction. (Count)
board.processor.cores3.core.commitStats0.committedInstType::SimdFloatReduceAdd            0      0.00%     65.12% # Class of committed instruction. (Count)
board.processor.cores3.core.commitStats0.committedInstType::SimdFloatReduceCmp            0      0.00%     65.12% # Class of committed instruction. (Count)
board.processor.cores3.core.commitStats0.committedInstType::SimdAes            0      0.00%     65.12% # Class of committed instruction. (Count)
board.processor.cores3.core.commitStats0.committedInstType::SimdAesMix            0      0.00%     65.12% # Class of committed instruction. (Count)
board.processor.cores3.core.commitStats0.committedInstType::SimdSha1Hash            0      0.00%     65.12% # Class of committed instruction. (Count)
board.processor.cores3.core.commitStats0.committedInstType::SimdSha1Hash2            0      0.00%     65.12% # Class of committed instruction. (Count)
board.processor.cores3.core.commitStats0.committedInstType::SimdSha256Hash            0      0.00%     65.12% # Class of committed instruction. (Count)
board.processor.cores3.core.commitStats0.committedInstType::SimdSha256Hash2            0      0.00%     65.12% # Class of committed instruction. (Count)
board.processor.cores3.core.commitStats0.committedInstType::SimdShaSigma2            0      0.00%     65.12% # Class of committed instruction. (Count)
board.processor.cores3.core.commitStats0.committedInstType::SimdShaSigma3            0      0.00%     65.12% # Class of committed instruction. (Count)
board.processor.cores3.core.commitStats0.committedInstType::SimdSha3            0      0.00%     65.12% # Class of committed instruction. (Count)
board.processor.cores3.core.commitStats0.committedInstType::SimdSm4e            0      0.00%     65.12% # Class of committed instruction. (Count)
board.processor.cores3.core.commitStats0.committedInstType::SimdCrc            0      0.00%     65.12% # Class of committed instruction. (Count)
board.processor.cores3.core.commitStats0.committedInstType::SimdPredAlu            0      0.00%     65.12% # Class of committed instruction. (Count)
board.processor.cores3.core.commitStats0.committedInstType::SimdDotProd            0      0.00%     65.12% # Class of committed instruction. (Count)
board.processor.cores3.core.commitStats0.committedInstType::Matrix            0      0.00%     65.12% # Class of committed instruction. (Count)
board.processor.cores3.core.commitStats0.committedInstType::MatrixMov            0      0.00%     65.12% # Class of committed instruction. (Count)
board.processor.cores3.core.commitStats0.committedInstType::MatrixOP            0      0.00%     65.12% # Class of committed instruction. (Count)
board.processor.cores3.core.commitStats0.committedInstType::MemRead        20586      0.00%     65.12% # Class of committed instruction. (Count)
board.processor.cores3.core.commitStats0.committedInstType::MemWrite        10978      0.00%     65.12% # Class of committed instruction. (Count)
board.processor.cores3.core.commitStats0.committedInstType::FloatMemRead   2646494752     23.25%     88.36% # Class of committed instruction. (Count)
board.processor.cores3.core.commitStats0.committedInstType::FloatMemWrite   1324720577     11.64%    100.00% # Class of committed instruction. (Count)
board.processor.cores3.core.commitStats0.committedInstType::InstPrefetch            0      0.00%    100.00% # Class of committed instruction. (Count)
board.processor.cores3.core.commitStats0.committedInstType::SimdUnitStrideLoad            0      0.00%    100.00% # Class of committed instruction. (Count)
board.processor.cores3.core.commitStats0.committedInstType::SimdUnitStrideStore            0      0.00%    100.00% # Class of committed instruction. (Count)
board.processor.cores3.core.commitStats0.committedInstType::SimdUnitStrideMaskLoad            0      0.00%    100.00% # Class of committed instruction. (Count)
board.processor.cores3.core.commitStats0.committedInstType::SimdUnitStrideMaskStore            0      0.00%    100.00% # Class of committed instruction. (Count)
board.processor.cores3.core.commitStats0.committedInstType::SimdStridedLoad            0      0.00%    100.00% # Class of committed instruction. (Count)
board.processor.cores3.core.commitStats0.committedInstType::SimdStridedStore            0      0.00%    100.00% # Class of committed instruction. (Count)
board.processor.cores3.core.commitStats0.committedInstType::SimdIndexedLoad            0      0.00%    100.00% # Class of committed instruction. (Count)
board.processor.cores3.core.commitStats0.committedInstType::SimdIndexedStore            0      0.00%    100.00% # Class of committed instruction. (Count)
board.processor.cores3.core.commitStats0.committedInstType::SimdWholeRegisterLoad            0      0.00%    100.00% # Class of committed instruction. (Count)
board.processor.cores3.core.commitStats0.committedInstType::SimdWholeRegisterStore            0      0.00%    100.00% # Class of committed instruction. (Count)
board.processor.cores3.core.commitStats0.committedInstType::SimdUnitStrideFaultOnlyFirstLoad            0      0.00%    100.00% # Class of committed instruction. (Count)
board.processor.cores3.core.commitStats0.committedInstType::SimdUnitStrideSegmentedLoad            0      0.00%    100.00% # Class of committed instruction. (Count)
board.processor.cores3.core.commitStats0.committedInstType::SimdUnitStrideSegmentedStore            0      0.00%    100.00% # Class of committed instruction. (Count)
board.processor.cores3.core.commitStats0.committedInstType::SimdUnitStrideSegmentedFaultOnlyFirstLoad            0      0.00%    100.00% # Class of committed instruction. (Count)
board.processor.cores3.core.commitStats0.committedInstType::SimdStrideSegmentedLoad            0      0.00%    100.00% # Class of committed instruction. (Count)
board.processor.cores3.core.commitStats0.committedInstType::SimdStrideSegmentedStore            0      0.00%    100.00% # Class of committed instruction. (Count)
board.processor.cores3.core.commitStats0.committedInstType::SimdExt            0      0.00%    100.00% # Class of committed instruction. (Count)
board.processor.cores3.core.commitStats0.committedInstType::SimdFloatExt            0      0.00%    100.00% # Class of committed instruction. (Count)
board.processor.cores3.core.commitStats0.committedInstType::SimdConfig            0      0.00%    100.00% # Class of committed instruction. (Count)
board.processor.cores3.core.commitStats0.committedInstType::SimdBf16Add            0      0.00%    100.00% # Class of committed instruction. (Count)
board.processor.cores3.core.commitStats0.committedInstType::SimdBf16Cmp            0      0.00%    100.00% # Class of committed instruction. (Count)
board.processor.cores3.core.commitStats0.committedInstType::SimdBf16Cvt            0      0.00%    100.00% # Class of committed instruction. (Count)
board.processor.cores3.core.commitStats0.committedInstType::SimdBf16DotProd            0      0.00%    100.00% # Class of committed instruction. (Count)
board.processor.cores3.core.commitStats0.committedInstType::SimdBf16MatMultAcc            0      0.00%    100.00% # Class of committed instruction. (Count)
board.processor.cores3.core.commitStats0.committedInstType::SimdBf16Mult            0      0.00%    100.00% # Class of committed instruction. (Count)
board.processor.cores3.core.commitStats0.committedInstType::SimdBf16MultAcc            0      0.00%    100.00% # Class of committed instruction. (Count)
board.processor.cores3.core.commitStats0.committedInstType::Bf16Cvt            0      0.00%    100.00% # Class of committed instruction. (Count)
board.processor.cores3.core.commitStats0.committedInstType::System            0      0.00%    100.00% # Class of committed instruction. (Count)
board.processor.cores3.core.commitStats0.committedInstType::total  11383872121                       # Class of committed instruction. (Count)
board.processor.cores3.core.commitStats0.committedControl::IsControl    667191495                       # Class of control type instructions committed (Count)
board.processor.cores3.core.commitStats0.committedControl::IsDirectControl    667186726                       # Class of control type instructions committed (Count)
board.processor.cores3.core.commitStats0.committedControl::IsIndirectControl         4769                       # Class of control type instructions committed (Count)
board.processor.cores3.core.commitStats0.committedControl::IsCondControl    667180782                       # Class of control type instructions committed (Count)
board.processor.cores3.core.commitStats0.committedControl::IsUncondControl        10713                       # Class of control type instructions committed (Count)
board.processor.cores3.core.commitStats0.committedControl::IsCall         2509                       # Class of control type instructions committed (Count)
board.processor.cores3.core.commitStats0.committedControl::IsReturn         2504                       # Class of control type instructions committed (Count)
board.processor.cores3.core.commitStats0.functionCalls         2509                       # Number of function calls committed (Count)
board.processor.cores3.core.commitStats0.numCallsReturns         5013                       # Number of function calls and returns committed (Count)
board.processor.cores3.core.exec_context.thread_0.numMatAluAccesses            0                       # Number of matrix alu accesses (Count)
board.processor.cores3.core.exec_context.thread_0.numMatInsts            0                       # Number of matrix instructions (Count)
board.processor.cores3.core.exec_context.thread_0.numIdleCycles  8160.997340                       # Number of idle cycles (Cycle)
board.processor.cores3.core.exec_context.thread_0.numBusyCycles 11762930416.002659                       # Number of busy cycles (Cycle)
board.processor.cores3.core.exec_context.thread_0.notIdleFraction     0.999999                       # Percentage of non-idle cycles (Ratio)
board.processor.cores3.core.exec_context.thread_0.idleFraction     0.000001                       # Percentage of idle cycles (Ratio)
board.processor.cores3.core.executeStats0.numInsts   5363889036                       # Number of executed instructions (Count)
board.processor.cores3.core.executeStats0.numNop            0                       # Number of nop insts executed (Count)
board.processor.cores3.core.executeStats0.numBranches    667191495                       # Number of branches executed (Count)
board.processor.cores3.core.executeStats0.numLoadInsts   2646515338                       # Number of load instructions executed (Count)
board.processor.cores3.core.executeStats0.numStoreInsts   1324731555                       # Number of stores executed (Count)
board.processor.cores3.core.executeStats0.instRate     0.455999                       # Inst execution rate ((Count/Cycle))
board.processor.cores3.core.executeStats0.numCCRegReads   3359928751                       # Number of times the CC registers were read (Count)
board.processor.cores3.core.executeStats0.numCCRegWrites   2673530590                       # Number of times the CC registers were written (Count)
board.processor.cores3.core.executeStats0.numFpAluAccesses   6709851130                       # Number of float alu accesses (Count)
board.processor.cores3.core.executeStats0.numFpRegReads   9489281953                       # Number of times the floating registers were read (Count)
board.processor.cores3.core.executeStats0.numFpRegWrites   5385130470                       # Number of times the floating registers were written (Count)
board.processor.cores3.core.executeStats0.numIntAluAccesses   8645233850                       # Number of integer alu accesses (Count)
board.processor.cores3.core.executeStats0.numIntRegReads  11957279300                       # Number of times the integer registers were read (Count)
board.processor.cores3.core.executeStats0.numIntRegWrites   3338431614                       # Number of times the integer registers were written (Count)
board.processor.cores3.core.executeStats0.numMemRefs   3971246893                       # Number of memory refs (Count)
board.processor.cores3.core.executeStats0.numMiscRegReads   5305643078                       # Number of times the Misc registers were read (Count)
board.processor.cores3.core.executeStats0.numVecAluAccesses            0                       # Number of vector alu accesses (Count)
board.processor.cores3.core.executeStats0.numDiscardedOps            0                       # Number of ops (including micro ops) which were discarded before commit (Count)
board.processor.cores3.core.fetchStats0.numInsts   5363889068                       # Number of instructions fetched (thread level) (Count)
board.processor.cores3.core.fetchStats0.numOps  11383887419                       # Number of ops (including micro ops) fetched (thread level) (Count)
board.processor.cores3.core.fetchStats0.fetchRate     0.455999                       # Number of inst fetches per cycle ((Count/Cycle))
board.processor.cores3.core.fetchStats0.numBranches    667191495                       # Number of branches fetched (Count)
board.processor.cores3.core.fetchStats0.branchRate     0.056720                       # Number of branch fetches per cycle (Ratio)
board.processor.cores3.core.fetchStats0.numFetchSuspends            0                       # Number of times Execute suspended instruction fetching (Count)
board.processor.cores3.core.interrupts.clk_domain.clock         5328                       # Clock period in ticks (Tick)
board.processor.cores3.core.mmu.dtb.rdAccesses   2646523536                       # TLB accesses on read requests (Count)
board.processor.cores3.core.mmu.dtb.wrAccesses   1324738635                       # TLB accesses on write requests (Count)
board.processor.cores3.core.mmu.dtb.exAccesses            0                       # TLB accesses on execute (instr) requests (Count)
board.processor.cores3.core.mmu.dtb.rdMisses      2599968                       # TLB misses on read requests (Count)
board.processor.cores3.core.mmu.dtb.wrMisses        14176                       # TLB misses on write requests (Count)
board.processor.cores3.core.mmu.dtb.exMisses            0                       # TLB misses on execute (instr) requests (Count)
board.processor.cores3.core.mmu.dtb.walker.power_state.pwrStateResidencyTicks::UNDEFINED 3917061263754                       # Cumulative time (in ticks) in various power states (Tick)
board.processor.cores3.core.mmu.itb.rdAccesses            0                       # TLB accesses on read requests (Count)
board.processor.cores3.core.mmu.itb.wrAccesses            0                       # TLB accesses on write requests (Count)
board.processor.cores3.core.mmu.itb.exAccesses   7376552983                       # TLB accesses on execute (instr) requests (Count)
board.processor.cores3.core.mmu.itb.rdMisses            0                       # TLB misses on read requests (Count)
board.processor.cores3.core.mmu.itb.wrMisses            0                       # TLB misses on write requests (Count)
board.processor.cores3.core.mmu.itb.exMisses          124                       # TLB misses on execute (instr) requests (Count)
board.processor.cores3.core.mmu.itb.walker.power_state.pwrStateResidencyTicks::UNDEFINED 3917061263754                       # Cumulative time (in ticks) in various power states (Tick)
board.processor.cores3.core.power_state.pwrStateResidencyTicks::ON 3917061263754                       # Cumulative time (in ticks) in various power states (Tick)
board.processor.cores3.core.thread_0.numInsts   5363889036                       # Number of Instructions committed (Count)
board.processor.cores3.core.thread_0.numOps  11383872121                       # Number of Ops committed (Count)
board.processor.cores3.core.thread_0.numMemRefs   3971246893                       # Number of Memory References (Count)
board.processor.cores3.core.workload.numSyscalls           26                       # Number of system calls (Count)
board.workload.inst.arm                             0                       # number of arm instructions executed (Count)
board.workload.inst.quiesce                         0                       # number of quiesce instructions executed (Count)

---------- End Simulation Statistics   ----------
