
---------- Begin Simulation Statistics ----------
simSeconds                                   4.108442                       # Number of seconds simulated (Second)
simTicks                                 4108441573539                       # Number of ticks simulated (Tick)
finalTick                                4108441573539                       # Number of ticks from beginning of simulation (restored from checkpoints and never reset) (Tick)
simFreq                                  1000000000000                       # The number of ticks per simulated second ((Tick/Second))
hostSeconds                                  45351.19                       # Real time elapsed on the host (Second)
hostTickRate                                 90591711                       # The number of ticks simulated per host second (ticks/s) ((Tick/Second))
hostMemory                                    1257944                       # Number of bytes of host memory used (Byte)
simInsts                                  16149441589                       # Number of instructions simulated (Count)
simOps                                    34271665539                       # Number of ops (including micro ops) simulated (Count)
hostInstRate                                   356097                       # Simulator instruction rate (inst/s) ((Count/Second))
hostOpRate                                     755695                       # Simulator op (including micro ops) rate (op/s) ((Count/Second))
board.cache_hierarchy.l1d-cache-0.demandHits::processor.cores0.core.data      7413158                       # number of demand (read+write) hits (Count)
board.cache_hierarchy.l1d-cache-0.demandHits::total      7413158                       # number of demand (read+write) hits (Count)
board.cache_hierarchy.l1d-cache-0.overallHits::processor.cores0.core.data      7413158                       # number of overall hits (Count)
board.cache_hierarchy.l1d-cache-0.overallHits::total      7413158                       # number of overall hits (Count)
board.cache_hierarchy.l1d-cache-0.demandMisses::processor.cores0.core.data       432160                       # number of demand (read+write) misses (Count)
board.cache_hierarchy.l1d-cache-0.demandMisses::total       432160                       # number of demand (read+write) misses (Count)
board.cache_hierarchy.l1d-cache-0.overallMisses::processor.cores0.core.data       432160                       # number of overall misses (Count)
board.cache_hierarchy.l1d-cache-0.overallMisses::total       432160                       # number of overall misses (Count)
board.cache_hierarchy.l1d-cache-0.demandMissLatency::processor.cores0.core.data   6223960143                       # number of demand (read+write) miss ticks (Tick)
board.cache_hierarchy.l1d-cache-0.demandMissLatency::total   6223960143                       # number of demand (read+write) miss ticks (Tick)
board.cache_hierarchy.l1d-cache-0.overallMissLatency::processor.cores0.core.data   6223960143                       # number of overall miss ticks (Tick)
board.cache_hierarchy.l1d-cache-0.overallMissLatency::total   6223960143                       # number of overall miss ticks (Tick)
board.cache_hierarchy.l1d-cache-0.demandAccesses::processor.cores0.core.data      7845318                       # number of demand (read+write) accesses (Count)
board.cache_hierarchy.l1d-cache-0.demandAccesses::total      7845318                       # number of demand (read+write) accesses (Count)
board.cache_hierarchy.l1d-cache-0.overallAccesses::processor.cores0.core.data      7845318                       # number of overall (read+write) accesses (Count)
board.cache_hierarchy.l1d-cache-0.overallAccesses::total      7845318                       # number of overall (read+write) accesses (Count)
board.cache_hierarchy.l1d-cache-0.demandMissRate::processor.cores0.core.data     0.055085                       # miss rate for demand accesses (Ratio)
board.cache_hierarchy.l1d-cache-0.demandMissRate::total     0.055085                       # miss rate for demand accesses (Ratio)
board.cache_hierarchy.l1d-cache-0.overallMissRate::processor.cores0.core.data     0.055085                       # miss rate for overall accesses (Ratio)
board.cache_hierarchy.l1d-cache-0.overallMissRate::total     0.055085                       # miss rate for overall accesses (Ratio)
board.cache_hierarchy.l1d-cache-0.demandAvgMissLatency::processor.cores0.core.data 14401.981079                       # average overall miss latency in ticks ((Tick/Count))
board.cache_hierarchy.l1d-cache-0.demandAvgMissLatency::total 14401.981079                       # average overall miss latency in ticks ((Tick/Count))
board.cache_hierarchy.l1d-cache-0.overallAvgMissLatency::processor.cores0.core.data 14401.981079                       # average overall miss latency ((Tick/Count))
board.cache_hierarchy.l1d-cache-0.overallAvgMissLatency::total 14401.981079                       # average overall miss latency ((Tick/Count))
board.cache_hierarchy.l1d-cache-0.blockedCycles::no_mshrs            0                       # number of cycles access was blocked (Cycle)
board.cache_hierarchy.l1d-cache-0.blockedCycles::no_wbuffers            0                       # number of cycles access was blocked (Cycle)
board.cache_hierarchy.l1d-cache-0.blockedCycles::no_targets            0                       # number of cycles access was blocked (Cycle)
board.cache_hierarchy.l1d-cache-0.blockedCauses::no_mshrs            0                       # number of times access was blocked (Count)
board.cache_hierarchy.l1d-cache-0.blockedCauses::no_wbuffers            0                       # number of times access was blocked (Count)
board.cache_hierarchy.l1d-cache-0.blockedCauses::no_targets            0                       # number of times access was blocked (Count)
board.cache_hierarchy.l1d-cache-0.avgBlocked::no_mshrs          nan                       # average number of cycles each access was blocked ((Cycle/Count))
board.cache_hierarchy.l1d-cache-0.avgBlocked::no_wbuffers          nan                       # average number of cycles each access was blocked ((Cycle/Count))
board.cache_hierarchy.l1d-cache-0.avgBlocked::no_targets          nan                       # average number of cycles each access was blocked ((Cycle/Count))
board.cache_hierarchy.l1d-cache-0.writebacks::writebacks       452707                       # number of writebacks (Count)
board.cache_hierarchy.l1d-cache-0.writebacks::total       452707                       # number of writebacks (Count)
board.cache_hierarchy.l1d-cache-0.demandMshrHits::processor.cores0.core.data       416510                       # number of demand (read+write) MSHR hits (Count)
board.cache_hierarchy.l1d-cache-0.demandMshrHits::total       416510                       # number of demand (read+write) MSHR hits (Count)
board.cache_hierarchy.l1d-cache-0.overallMshrHits::processor.cores0.core.data       416510                       # number of overall MSHR hits (Count)
board.cache_hierarchy.l1d-cache-0.overallMshrHits::total       416510                       # number of overall MSHR hits (Count)
board.cache_hierarchy.l1d-cache-0.demandMshrMisses::processor.cores0.core.data        15650                       # number of demand (read+write) MSHR misses (Count)
board.cache_hierarchy.l1d-cache-0.demandMshrMisses::total        15650                       # number of demand (read+write) MSHR misses (Count)
board.cache_hierarchy.l1d-cache-0.overallMshrMisses::cache_hierarchy.l1d-cache-0.prefetcher       962168                       # number of overall MSHR misses (Count)
board.cache_hierarchy.l1d-cache-0.overallMshrMisses::processor.cores0.core.data        15650                       # number of overall MSHR misses (Count)
board.cache_hierarchy.l1d-cache-0.overallMshrMisses::total       977818                       # number of overall MSHR misses (Count)
board.cache_hierarchy.l1d-cache-0.demandMshrMissLatency::processor.cores0.core.data   1873962495                       # number of demand (read+write) MSHR miss ticks (Tick)
board.cache_hierarchy.l1d-cache-0.demandMshrMissLatency::total   1873962495                       # number of demand (read+write) MSHR miss ticks (Tick)
board.cache_hierarchy.l1d-cache-0.overallMshrMissLatency::cache_hierarchy.l1d-cache-0.prefetcher  47083215699                       # number of overall MSHR miss ticks (Tick)
board.cache_hierarchy.l1d-cache-0.overallMshrMissLatency::processor.cores0.core.data   1873962495                       # number of overall MSHR miss ticks (Tick)
board.cache_hierarchy.l1d-cache-0.overallMshrMissLatency::total  48957178194                       # number of overall MSHR miss ticks (Tick)
board.cache_hierarchy.l1d-cache-0.demandMshrMissRate::processor.cores0.core.data     0.001995                       # mshr miss ratio for demand accesses (Ratio)
board.cache_hierarchy.l1d-cache-0.demandMshrMissRate::total     0.001995                       # mshr miss ratio for demand accesses (Ratio)
board.cache_hierarchy.l1d-cache-0.overallMshrMissRate::cache_hierarchy.l1d-cache-0.prefetcher          inf                       # mshr miss ratio for overall accesses (Ratio)
board.cache_hierarchy.l1d-cache-0.overallMshrMissRate::processor.cores0.core.data     0.001995                       # mshr miss ratio for overall accesses (Ratio)
board.cache_hierarchy.l1d-cache-0.overallMshrMissRate::total     0.124637                       # mshr miss ratio for overall accesses (Ratio)
board.cache_hierarchy.l1d-cache-0.demandAvgMshrMissLatency::processor.cores0.core.data 119742.012460                       # average overall mshr miss latency ((Tick/Count))
board.cache_hierarchy.l1d-cache-0.demandAvgMshrMissLatency::total 119742.012460                       # average overall mshr miss latency ((Tick/Count))
board.cache_hierarchy.l1d-cache-0.overallAvgMshrMissLatency::cache_hierarchy.l1d-cache-0.prefetcher 48934.505927                       # average overall mshr miss latency ((Tick/Count))
board.cache_hierarchy.l1d-cache-0.overallAvgMshrMissLatency::processor.cores0.core.data 119742.012460                       # average overall mshr miss latency ((Tick/Count))
board.cache_hierarchy.l1d-cache-0.overallAvgMshrMissLatency::total 50067.781728                       # average overall mshr miss latency ((Tick/Count))
board.cache_hierarchy.l1d-cache-0.replacements       977308                       # number of replacements (Count)
board.cache_hierarchy.l1d-cache-0.HardPFReq.mshrMisses::cache_hierarchy.l1d-cache-0.prefetcher       962168                       # number of HardPFReq MSHR misses (Count)
board.cache_hierarchy.l1d-cache-0.HardPFReq.mshrMisses::total       962168                       # number of HardPFReq MSHR misses (Count)
board.cache_hierarchy.l1d-cache-0.HardPFReq.mshrMissLatency::cache_hierarchy.l1d-cache-0.prefetcher  47083215699                       # number of HardPFReq MSHR miss ticks (Tick)
board.cache_hierarchy.l1d-cache-0.HardPFReq.mshrMissLatency::total  47083215699                       # number of HardPFReq MSHR miss ticks (Tick)
board.cache_hierarchy.l1d-cache-0.HardPFReq.mshrMissRate::cache_hierarchy.l1d-cache-0.prefetcher          inf                       # mshr miss rate for HardPFReq accesses (Ratio)
board.cache_hierarchy.l1d-cache-0.HardPFReq.mshrMissRate::total          inf                       # mshr miss rate for HardPFReq accesses (Ratio)
board.cache_hierarchy.l1d-cache-0.HardPFReq.avgMshrMissLatency::cache_hierarchy.l1d-cache-0.prefetcher 48934.505927                       # average HardPFReq mshr miss latency ((Tick/Count))
board.cache_hierarchy.l1d-cache-0.HardPFReq.avgMshrMissLatency::total 48934.505927                       # average HardPFReq mshr miss latency ((Tick/Count))
board.cache_hierarchy.l1d-cache-0.LockedRMWReadReq.hits::processor.cores0.core.data           27                       # number of LockedRMWReadReq hits (Count)
board.cache_hierarchy.l1d-cache-0.LockedRMWReadReq.hits::total           27                       # number of LockedRMWReadReq hits (Count)
board.cache_hierarchy.l1d-cache-0.LockedRMWReadReq.misses::processor.cores0.core.data            2                       # number of LockedRMWReadReq misses (Count)
board.cache_hierarchy.l1d-cache-0.LockedRMWReadReq.misses::total            2                       # number of LockedRMWReadReq misses (Count)
board.cache_hierarchy.l1d-cache-0.LockedRMWReadReq.missLatency::processor.cores0.core.data       217116                       # number of LockedRMWReadReq miss ticks (Tick)
board.cache_hierarchy.l1d-cache-0.LockedRMWReadReq.missLatency::total       217116                       # number of LockedRMWReadReq miss ticks (Tick)
board.cache_hierarchy.l1d-cache-0.LockedRMWReadReq.accesses::processor.cores0.core.data           29                       # number of LockedRMWReadReq accesses(hits+misses) (Count)
board.cache_hierarchy.l1d-cache-0.LockedRMWReadReq.accesses::total           29                       # number of LockedRMWReadReq accesses(hits+misses) (Count)
board.cache_hierarchy.l1d-cache-0.LockedRMWReadReq.missRate::processor.cores0.core.data     0.068966                       # miss rate for LockedRMWReadReq accesses (Ratio)
board.cache_hierarchy.l1d-cache-0.LockedRMWReadReq.missRate::total     0.068966                       # miss rate for LockedRMWReadReq accesses (Ratio)
board.cache_hierarchy.l1d-cache-0.LockedRMWReadReq.avgMissLatency::processor.cores0.core.data       108558                       # average LockedRMWReadReq miss latency ((Tick/Count))
board.cache_hierarchy.l1d-cache-0.LockedRMWReadReq.avgMissLatency::total       108558                       # average LockedRMWReadReq miss latency ((Tick/Count))
board.cache_hierarchy.l1d-cache-0.LockedRMWReadReq.mshrMisses::processor.cores0.core.data            2                       # number of LockedRMWReadReq MSHR misses (Count)
board.cache_hierarchy.l1d-cache-0.LockedRMWReadReq.mshrMisses::total            2                       # number of LockedRMWReadReq MSHR misses (Count)
board.cache_hierarchy.l1d-cache-0.LockedRMWReadReq.mshrMissLatency::processor.cores0.core.data       442557                       # number of LockedRMWReadReq MSHR miss ticks (Tick)
board.cache_hierarchy.l1d-cache-0.LockedRMWReadReq.mshrMissLatency::total       442557                       # number of LockedRMWReadReq MSHR miss ticks (Tick)
board.cache_hierarchy.l1d-cache-0.LockedRMWReadReq.mshrMissRate::processor.cores0.core.data     0.068966                       # mshr miss rate for LockedRMWReadReq accesses (Ratio)
board.cache_hierarchy.l1d-cache-0.LockedRMWReadReq.mshrMissRate::total     0.068966                       # mshr miss rate for LockedRMWReadReq accesses (Ratio)
board.cache_hierarchy.l1d-cache-0.LockedRMWReadReq.avgMshrMissLatency::processor.cores0.core.data 221278.500000                       # average LockedRMWReadReq mshr miss latency ((Tick/Count))
board.cache_hierarchy.l1d-cache-0.LockedRMWReadReq.avgMshrMissLatency::total 221278.500000                       # average LockedRMWReadReq mshr miss latency ((Tick/Count))
board.cache_hierarchy.l1d-cache-0.LockedRMWWriteReq.hits::processor.cores0.core.data           29                       # number of LockedRMWWriteReq hits (Count)
board.cache_hierarchy.l1d-cache-0.LockedRMWWriteReq.hits::total           29                       # number of LockedRMWWriteReq hits (Count)
board.cache_hierarchy.l1d-cache-0.LockedRMWWriteReq.accesses::processor.cores0.core.data           29                       # number of LockedRMWWriteReq accesses(hits+misses) (Count)
board.cache_hierarchy.l1d-cache-0.LockedRMWWriteReq.accesses::total           29                       # number of LockedRMWWriteReq accesses(hits+misses) (Count)
board.cache_hierarchy.l1d-cache-0.ReadReq.hits::processor.cores0.core.data      3789478                       # number of ReadReq hits (Count)
board.cache_hierarchy.l1d-cache-0.ReadReq.hits::total      3789478                       # number of ReadReq hits (Count)
board.cache_hierarchy.l1d-cache-0.ReadReq.misses::processor.cores0.core.data       424931                       # number of ReadReq misses (Count)
board.cache_hierarchy.l1d-cache-0.ReadReq.misses::total       424931                       # number of ReadReq misses (Count)
board.cache_hierarchy.l1d-cache-0.ReadReq.missLatency::processor.cores0.core.data   5396326605                       # number of ReadReq miss ticks (Tick)
board.cache_hierarchy.l1d-cache-0.ReadReq.missLatency::total   5396326605                       # number of ReadReq miss ticks (Tick)
board.cache_hierarchy.l1d-cache-0.ReadReq.accesses::processor.cores0.core.data      4214409                       # number of ReadReq accesses(hits+misses) (Count)
board.cache_hierarchy.l1d-cache-0.ReadReq.accesses::total      4214409                       # number of ReadReq accesses(hits+misses) (Count)
board.cache_hierarchy.l1d-cache-0.ReadReq.missRate::processor.cores0.core.data     0.100828                       # miss rate for ReadReq accesses (Ratio)
board.cache_hierarchy.l1d-cache-0.ReadReq.missRate::total     0.100828                       # miss rate for ReadReq accesses (Ratio)
board.cache_hierarchy.l1d-cache-0.ReadReq.avgMissLatency::processor.cores0.core.data 12699.300839                       # average ReadReq miss latency ((Tick/Count))
board.cache_hierarchy.l1d-cache-0.ReadReq.avgMissLatency::total 12699.300839                       # average ReadReq miss latency ((Tick/Count))
board.cache_hierarchy.l1d-cache-0.ReadReq.mshrHits::processor.cores0.core.data       416475                       # number of ReadReq MSHR hits (Count)
board.cache_hierarchy.l1d-cache-0.ReadReq.mshrHits::total       416475                       # number of ReadReq MSHR hits (Count)
board.cache_hierarchy.l1d-cache-0.ReadReq.mshrMisses::processor.cores0.core.data         8456                       # number of ReadReq MSHR misses (Count)
board.cache_hierarchy.l1d-cache-0.ReadReq.mshrMisses::total         8456                       # number of ReadReq MSHR misses (Count)
board.cache_hierarchy.l1d-cache-0.ReadReq.mshrMissLatency::processor.cores0.core.data   1049034915                       # number of ReadReq MSHR miss ticks (Tick)
board.cache_hierarchy.l1d-cache-0.ReadReq.mshrMissLatency::total   1049034915                       # number of ReadReq MSHR miss ticks (Tick)
board.cache_hierarchy.l1d-cache-0.ReadReq.mshrMissRate::processor.cores0.core.data     0.002006                       # mshr miss rate for ReadReq accesses (Ratio)
board.cache_hierarchy.l1d-cache-0.ReadReq.mshrMissRate::total     0.002006                       # mshr miss rate for ReadReq accesses (Ratio)
board.cache_hierarchy.l1d-cache-0.ReadReq.avgMshrMissLatency::processor.cores0.core.data 124058.055227                       # average ReadReq mshr miss latency ((Tick/Count))
board.cache_hierarchy.l1d-cache-0.ReadReq.avgMshrMissLatency::total 124058.055227                       # average ReadReq mshr miss latency ((Tick/Count))
board.cache_hierarchy.l1d-cache-0.WriteReq.hits::processor.cores0.core.data      3623680                       # number of WriteReq hits (Count)
board.cache_hierarchy.l1d-cache-0.WriteReq.hits::total      3623680                       # number of WriteReq hits (Count)
board.cache_hierarchy.l1d-cache-0.WriteReq.misses::processor.cores0.core.data         7229                       # number of WriteReq misses (Count)
board.cache_hierarchy.l1d-cache-0.WriteReq.misses::total         7229                       # number of WriteReq misses (Count)
board.cache_hierarchy.l1d-cache-0.WriteReq.missLatency::processor.cores0.core.data    827633538                       # number of WriteReq miss ticks (Tick)
board.cache_hierarchy.l1d-cache-0.WriteReq.missLatency::total    827633538                       # number of WriteReq miss ticks (Tick)
board.cache_hierarchy.l1d-cache-0.WriteReq.accesses::processor.cores0.core.data      3630909                       # number of WriteReq accesses(hits+misses) (Count)
board.cache_hierarchy.l1d-cache-0.WriteReq.accesses::total      3630909                       # number of WriteReq accesses(hits+misses) (Count)
board.cache_hierarchy.l1d-cache-0.WriteReq.missRate::processor.cores0.core.data     0.001991                       # miss rate for WriteReq accesses (Ratio)
board.cache_hierarchy.l1d-cache-0.WriteReq.missRate::total     0.001991                       # miss rate for WriteReq accesses (Ratio)
board.cache_hierarchy.l1d-cache-0.WriteReq.avgMissLatency::processor.cores0.core.data 114487.970397                       # average WriteReq miss latency ((Tick/Count))
board.cache_hierarchy.l1d-cache-0.WriteReq.avgMissLatency::total 114487.970397                       # average WriteReq miss latency ((Tick/Count))
board.cache_hierarchy.l1d-cache-0.WriteReq.mshrHits::processor.cores0.core.data           35                       # number of WriteReq MSHR hits (Count)
board.cache_hierarchy.l1d-cache-0.WriteReq.mshrHits::total           35                       # number of WriteReq MSHR hits (Count)
board.cache_hierarchy.l1d-cache-0.WriteReq.mshrMisses::processor.cores0.core.data         7194                       # number of WriteReq MSHR misses (Count)
board.cache_hierarchy.l1d-cache-0.WriteReq.mshrMisses::total         7194                       # number of WriteReq MSHR misses (Count)
board.cache_hierarchy.l1d-cache-0.WriteReq.mshrMissLatency::processor.cores0.core.data    824927580                       # number of WriteReq MSHR miss ticks (Tick)
board.cache_hierarchy.l1d-cache-0.WriteReq.mshrMissLatency::total    824927580                       # number of WriteReq MSHR miss ticks (Tick)
board.cache_hierarchy.l1d-cache-0.WriteReq.mshrMissRate::processor.cores0.core.data     0.001981                       # mshr miss rate for WriteReq accesses (Ratio)
board.cache_hierarchy.l1d-cache-0.WriteReq.mshrMissRate::total     0.001981                       # mshr miss rate for WriteReq accesses (Ratio)
board.cache_hierarchy.l1d-cache-0.WriteReq.avgMshrMissLatency::processor.cores0.core.data 114668.832360                       # average WriteReq mshr miss latency ((Tick/Count))
board.cache_hierarchy.l1d-cache-0.WriteReq.avgMshrMissLatency::total 114668.832360                       # average WriteReq mshr miss latency ((Tick/Count))
board.cache_hierarchy.l1d-cache-0.power_state.pwrStateResidencyTicks::UNDEFINED 4108441573539                       # Cumulative time (in ticks) in various power states (Tick)
board.cache_hierarchy.l1d-cache-0.prefetcher.demandMshrMisses        15650                       # demands not covered by prefetchs (Count)
board.cache_hierarchy.l1d-cache-0.prefetcher.pfIssued      3756370                       # number of hwpf issued (Count)
board.cache_hierarchy.l1d-cache-0.prefetcher.pfUnused           24                       # number of HardPF blocks evicted w/o reference (Count)
board.cache_hierarchy.l1d-cache-0.prefetcher.pfUseful       545630                       # number of useful prefetch (Count)
board.cache_hierarchy.l1d-cache-0.prefetcher.pfUsefulButMiss            0                       # number of hit on prefetch but cache block is not in an usable state (Count)
board.cache_hierarchy.l1d-cache-0.prefetcher.accuracy     0.145255                       # accuracy of the prefetcher (Count)
board.cache_hierarchy.l1d-cache-0.prefetcher.coverage     0.972117                       # coverage brought by this prefetcher (Count)
board.cache_hierarchy.l1d-cache-0.prefetcher.pfHitInCache      1365185                       # number of prefetches hitting in cache (Count)
board.cache_hierarchy.l1d-cache-0.prefetcher.pfHitInMSHR      1429017                       # number of prefetches hitting in a MSHR (Count)
board.cache_hierarchy.l1d-cache-0.prefetcher.pfHitInWB            0                       # number of prefetches hit in the Write Buffer (Count)
board.cache_hierarchy.l1d-cache-0.prefetcher.pfLate      2794202                       # number of late prefetches (hitting in cache, MSHR or WB) (Count)
board.cache_hierarchy.l1d-cache-0.prefetcher.pfIdentified      3756390                       # number of prefetch candidates identified (Count)
board.cache_hierarchy.l1d-cache-0.prefetcher.pfBufferHit           10                       # number of redundant prefetches already in prefetch queue (Count)
board.cache_hierarchy.l1d-cache-0.prefetcher.pfInCache            0                       # number of redundant prefetches already in cache/mshr dropped (Count)
board.cache_hierarchy.l1d-cache-0.prefetcher.pfRemovedDemand            5                       # number of prefetches dropped due to a demand for the same address (Count)
board.cache_hierarchy.l1d-cache-0.prefetcher.pfRemovedFull            0                       # number of prefetches dropped due to prefetch queue size (Count)
board.cache_hierarchy.l1d-cache-0.prefetcher.pfSpanPage       152694                       # number of prefetches that crossed the page (Count)
board.cache_hierarchy.l1d-cache-0.prefetcher.pfUsefulSpanPage        90446                       # number of prefetches that is useful and crossed the page (Count)
board.cache_hierarchy.l1d-cache-0.prefetcher.power_state.pwrStateResidencyTicks::UNDEFINED 4108441573539                       # Cumulative time (in ticks) in various power states (Tick)
board.cache_hierarchy.l1d-cache-0.tags.tagsInUse   511.992676                       # Average ticks per tags in use ((Tick/Count))
board.cache_hierarchy.l1d-cache-0.tags.totalRefs      8391034                       # Total number of references to valid blocks. (Count)
board.cache_hierarchy.l1d-cache-0.tags.sampledRefs       977820                       # Sample count of references to valid blocks. (Count)
board.cache_hierarchy.l1d-cache-0.tags.avgRefs     8.581369                       # Average number of references to valid blocks. ((Count/Count))
board.cache_hierarchy.l1d-cache-0.tags.warmupTick       233766                       # The tick when the warmup percentage was hit. (Tick)
board.cache_hierarchy.l1d-cache-0.tags.occupancies::cache_hierarchy.l1d-cache-0.prefetcher   482.178435                       # Average occupied blocks per tick, per requestor ((Count/Tick))
board.cache_hierarchy.l1d-cache-0.tags.occupancies::processor.cores0.core.data    29.814241                       # Average occupied blocks per tick, per requestor ((Count/Tick))
board.cache_hierarchy.l1d-cache-0.tags.avgOccs::cache_hierarchy.l1d-cache-0.prefetcher     0.941755                       # Average percentage of cache occupancy ((Ratio/Tick))
board.cache_hierarchy.l1d-cache-0.tags.avgOccs::processor.cores0.core.data     0.058231                       # Average percentage of cache occupancy ((Ratio/Tick))
board.cache_hierarchy.l1d-cache-0.tags.avgOccs::total     0.999986                       # Average percentage of cache occupancy ((Ratio/Tick))
board.cache_hierarchy.l1d-cache-0.tags.occupanciesTaskId::1022          482                       # Occupied blocks per task id (Count)
board.cache_hierarchy.l1d-cache-0.tags.occupanciesTaskId::1024           30                       # Occupied blocks per task id (Count)
board.cache_hierarchy.l1d-cache-0.tags.ageTaskId_1022::4          482                       # Occupied blocks per task id, per block age (Count)
board.cache_hierarchy.l1d-cache-0.tags.ageTaskId_1024::4           30                       # Occupied blocks per task id, per block age (Count)
board.cache_hierarchy.l1d-cache-0.tags.ratioOccsTaskId::1022     0.941406                       # Ratio of occupied blocks and all blocks, per task id (Ratio)
board.cache_hierarchy.l1d-cache-0.tags.ratioOccsTaskId::1024     0.058594                       # Ratio of occupied blocks and all blocks, per task id (Ratio)
board.cache_hierarchy.l1d-cache-0.tags.tagAccesses     63740828                       # Number of tag accesses (Count)
board.cache_hierarchy.l1d-cache-0.tags.dataAccesses     63740828                       # Number of data accesses (Count)
board.cache_hierarchy.l1d-cache-0.tags.power_state.pwrStateResidencyTicks::UNDEFINED 4108441573539                       # Cumulative time (in ticks) in various power states (Tick)
board.cache_hierarchy.l1d-cache-1.demandHits::processor.cores1.core.data   3968096087                       # number of demand (read+write) hits (Count)
board.cache_hierarchy.l1d-cache-1.demandHits::total   3968096087                       # number of demand (read+write) hits (Count)
board.cache_hierarchy.l1d-cache-1.overallHits::processor.cores1.core.data   3968096087                       # number of overall hits (Count)
board.cache_hierarchy.l1d-cache-1.overallHits::total   3968096087                       # number of overall hits (Count)
board.cache_hierarchy.l1d-cache-1.demandMisses::processor.cores1.core.data      3150713                       # number of demand (read+write) misses (Count)
board.cache_hierarchy.l1d-cache-1.demandMisses::total      3150713                       # number of demand (read+write) misses (Count)
board.cache_hierarchy.l1d-cache-1.overallMisses::processor.cores1.core.data      3150713                       # number of overall misses (Count)
board.cache_hierarchy.l1d-cache-1.overallMisses::total      3150713                       # number of overall misses (Count)
board.cache_hierarchy.l1d-cache-1.demandMissLatency::processor.cores1.core.data 328846887603                       # number of demand (read+write) miss ticks (Tick)
board.cache_hierarchy.l1d-cache-1.demandMissLatency::total 328846887603                       # number of demand (read+write) miss ticks (Tick)
board.cache_hierarchy.l1d-cache-1.overallMissLatency::processor.cores1.core.data 328846887603                       # number of overall miss ticks (Tick)
board.cache_hierarchy.l1d-cache-1.overallMissLatency::total 328846887603                       # number of overall miss ticks (Tick)
board.cache_hierarchy.l1d-cache-1.demandAccesses::processor.cores1.core.data   3971246800                       # number of demand (read+write) accesses (Count)
board.cache_hierarchy.l1d-cache-1.demandAccesses::total   3971246800                       # number of demand (read+write) accesses (Count)
board.cache_hierarchy.l1d-cache-1.overallAccesses::processor.cores1.core.data   3971246800                       # number of overall (read+write) accesses (Count)
board.cache_hierarchy.l1d-cache-1.overallAccesses::total   3971246800                       # number of overall (read+write) accesses (Count)
board.cache_hierarchy.l1d-cache-1.demandMissRate::processor.cores1.core.data     0.000793                       # miss rate for demand accesses (Ratio)
board.cache_hierarchy.l1d-cache-1.demandMissRate::total     0.000793                       # miss rate for demand accesses (Ratio)
board.cache_hierarchy.l1d-cache-1.overallMissRate::processor.cores1.core.data     0.000793                       # miss rate for overall accesses (Ratio)
board.cache_hierarchy.l1d-cache-1.overallMissRate::total     0.000793                       # miss rate for overall accesses (Ratio)
board.cache_hierarchy.l1d-cache-1.demandAvgMissLatency::processor.cores1.core.data 104372.212767                       # average overall miss latency in ticks ((Tick/Count))
board.cache_hierarchy.l1d-cache-1.demandAvgMissLatency::total 104372.212767                       # average overall miss latency in ticks ((Tick/Count))
board.cache_hierarchy.l1d-cache-1.overallAvgMissLatency::processor.cores1.core.data 104372.212767                       # average overall miss latency ((Tick/Count))
board.cache_hierarchy.l1d-cache-1.overallAvgMissLatency::total 104372.212767                       # average overall miss latency ((Tick/Count))
board.cache_hierarchy.l1d-cache-1.blockedCycles::no_mshrs            0                       # number of cycles access was blocked (Cycle)
board.cache_hierarchy.l1d-cache-1.blockedCycles::no_wbuffers            0                       # number of cycles access was blocked (Cycle)
board.cache_hierarchy.l1d-cache-1.blockedCycles::no_targets            0                       # number of cycles access was blocked (Cycle)
board.cache_hierarchy.l1d-cache-1.blockedCauses::no_mshrs            0                       # number of times access was blocked (Count)
board.cache_hierarchy.l1d-cache-1.blockedCauses::no_wbuffers            0                       # number of times access was blocked (Count)
board.cache_hierarchy.l1d-cache-1.blockedCauses::no_targets            0                       # number of times access was blocked (Count)
board.cache_hierarchy.l1d-cache-1.avgBlocked::no_mshrs          nan                       # average number of cycles each access was blocked ((Cycle/Count))
board.cache_hierarchy.l1d-cache-1.avgBlocked::no_wbuffers          nan                       # average number of cycles each access was blocked ((Cycle/Count))
board.cache_hierarchy.l1d-cache-1.avgBlocked::no_targets          nan                       # average number of cycles each access was blocked ((Cycle/Count))
board.cache_hierarchy.l1d-cache-1.writebacks::writebacks       590077                       # number of writebacks (Count)
board.cache_hierarchy.l1d-cache-1.writebacks::total       590077                       # number of writebacks (Count)
board.cache_hierarchy.l1d-cache-1.demandMshrHits::processor.cores1.core.data       402827                       # number of demand (read+write) MSHR hits (Count)
board.cache_hierarchy.l1d-cache-1.demandMshrHits::total       402827                       # number of demand (read+write) MSHR hits (Count)
board.cache_hierarchy.l1d-cache-1.overallMshrHits::processor.cores1.core.data       402827                       # number of overall MSHR hits (Count)
board.cache_hierarchy.l1d-cache-1.overallMshrHits::total       402827                       # number of overall MSHR hits (Count)
board.cache_hierarchy.l1d-cache-1.demandMshrMisses::processor.cores1.core.data      2747886                       # number of demand (read+write) MSHR misses (Count)
board.cache_hierarchy.l1d-cache-1.demandMshrMisses::total      2747886                       # number of demand (read+write) MSHR misses (Count)
board.cache_hierarchy.l1d-cache-1.overallMshrMisses::cache_hierarchy.l1d-cache-1.prefetcher    164101939                       # number of overall MSHR misses (Count)
board.cache_hierarchy.l1d-cache-1.overallMshrMisses::processor.cores1.core.data      2747886                       # number of overall MSHR misses (Count)
board.cache_hierarchy.l1d-cache-1.overallMshrMisses::total    166849825                       # number of overall MSHR misses (Count)
board.cache_hierarchy.l1d-cache-1.demandMshrMissLatency::processor.cores1.core.data 323561052729                       # number of demand (read+write) MSHR miss ticks (Tick)
board.cache_hierarchy.l1d-cache-1.demandMshrMissLatency::total 323561052729                       # number of demand (read+write) MSHR miss ticks (Tick)
board.cache_hierarchy.l1d-cache-1.overallMshrMissLatency::cache_hierarchy.l1d-cache-1.prefetcher 3567679449623                       # number of overall MSHR miss ticks (Tick)
board.cache_hierarchy.l1d-cache-1.overallMshrMissLatency::processor.cores1.core.data 323561052729                       # number of overall MSHR miss ticks (Tick)
board.cache_hierarchy.l1d-cache-1.overallMshrMissLatency::total 3891240502352                       # number of overall MSHR miss ticks (Tick)
board.cache_hierarchy.l1d-cache-1.demandMshrMissRate::processor.cores1.core.data     0.000692                       # mshr miss ratio for demand accesses (Ratio)
board.cache_hierarchy.l1d-cache-1.demandMshrMissRate::total     0.000692                       # mshr miss ratio for demand accesses (Ratio)
board.cache_hierarchy.l1d-cache-1.overallMshrMissRate::cache_hierarchy.l1d-cache-1.prefetcher          inf                       # mshr miss ratio for overall accesses (Ratio)
board.cache_hierarchy.l1d-cache-1.overallMshrMissRate::processor.cores1.core.data     0.000692                       # mshr miss ratio for overall accesses (Ratio)
board.cache_hierarchy.l1d-cache-1.overallMshrMissRate::total     0.042014                       # mshr miss ratio for overall accesses (Ratio)
board.cache_hierarchy.l1d-cache-1.demandAvgMshrMissLatency::processor.cores1.core.data 117749.081559                       # average overall mshr miss latency ((Tick/Count))
board.cache_hierarchy.l1d-cache-1.demandAvgMshrMissLatency::total 117749.081559                       # average overall mshr miss latency ((Tick/Count))
board.cache_hierarchy.l1d-cache-1.overallAvgMshrMissLatency::cache_hierarchy.l1d-cache-1.prefetcher 21740.629461                       # average overall mshr miss latency ((Tick/Count))
board.cache_hierarchy.l1d-cache-1.overallAvgMshrMissLatency::processor.cores1.core.data 117749.081559                       # average overall mshr miss latency ((Tick/Count))
board.cache_hierarchy.l1d-cache-1.overallAvgMshrMissLatency::total 23321.813507                       # average overall mshr miss latency ((Tick/Count))
board.cache_hierarchy.l1d-cache-1.replacements    166849317                       # number of replacements (Count)
board.cache_hierarchy.l1d-cache-1.HardPFReq.mshrMisses::cache_hierarchy.l1d-cache-1.prefetcher    164101939                       # number of HardPFReq MSHR misses (Count)
board.cache_hierarchy.l1d-cache-1.HardPFReq.mshrMisses::total    164101939                       # number of HardPFReq MSHR misses (Count)
board.cache_hierarchy.l1d-cache-1.HardPFReq.mshrMissLatency::cache_hierarchy.l1d-cache-1.prefetcher 3567679449623                       # number of HardPFReq MSHR miss ticks (Tick)
board.cache_hierarchy.l1d-cache-1.HardPFReq.mshrMissLatency::total 3567679449623                       # number of HardPFReq MSHR miss ticks (Tick)
board.cache_hierarchy.l1d-cache-1.HardPFReq.mshrMissRate::cache_hierarchy.l1d-cache-1.prefetcher          inf                       # mshr miss rate for HardPFReq accesses (Ratio)
board.cache_hierarchy.l1d-cache-1.HardPFReq.mshrMissRate::total          inf                       # mshr miss rate for HardPFReq accesses (Ratio)
board.cache_hierarchy.l1d-cache-1.HardPFReq.avgMshrMissLatency::cache_hierarchy.l1d-cache-1.prefetcher 21740.629461                       # average HardPFReq mshr miss latency ((Tick/Count))
board.cache_hierarchy.l1d-cache-1.HardPFReq.avgMshrMissLatency::total 21740.629461                       # average HardPFReq mshr miss latency ((Tick/Count))
board.cache_hierarchy.l1d-cache-1.LockedRMWReadReq.hits::processor.cores1.core.data           44                       # number of LockedRMWReadReq hits (Count)
board.cache_hierarchy.l1d-cache-1.LockedRMWReadReq.hits::total           44                       # number of LockedRMWReadReq hits (Count)
board.cache_hierarchy.l1d-cache-1.LockedRMWReadReq.misses::processor.cores1.core.data            4                       # number of LockedRMWReadReq misses (Count)
board.cache_hierarchy.l1d-cache-1.LockedRMWReadReq.misses::total            4                       # number of LockedRMWReadReq misses (Count)
board.cache_hierarchy.l1d-cache-1.LockedRMWReadReq.missLatency::processor.cores1.core.data       434232                       # number of LockedRMWReadReq miss ticks (Tick)
board.cache_hierarchy.l1d-cache-1.LockedRMWReadReq.missLatency::total       434232                       # number of LockedRMWReadReq miss ticks (Tick)
board.cache_hierarchy.l1d-cache-1.LockedRMWReadReq.accesses::processor.cores1.core.data           48                       # number of LockedRMWReadReq accesses(hits+misses) (Count)
board.cache_hierarchy.l1d-cache-1.LockedRMWReadReq.accesses::total           48                       # number of LockedRMWReadReq accesses(hits+misses) (Count)
board.cache_hierarchy.l1d-cache-1.LockedRMWReadReq.missRate::processor.cores1.core.data     0.083333                       # miss rate for LockedRMWReadReq accesses (Ratio)
board.cache_hierarchy.l1d-cache-1.LockedRMWReadReq.missRate::total     0.083333                       # miss rate for LockedRMWReadReq accesses (Ratio)
board.cache_hierarchy.l1d-cache-1.LockedRMWReadReq.avgMissLatency::processor.cores1.core.data       108558                       # average LockedRMWReadReq miss latency ((Tick/Count))
board.cache_hierarchy.l1d-cache-1.LockedRMWReadReq.avgMissLatency::total       108558                       # average LockedRMWReadReq miss latency ((Tick/Count))
board.cache_hierarchy.l1d-cache-1.LockedRMWReadReq.mshrMisses::processor.cores1.core.data            4                       # number of LockedRMWReadReq MSHR misses (Count)
board.cache_hierarchy.l1d-cache-1.LockedRMWReadReq.mshrMisses::total            4                       # number of LockedRMWReadReq MSHR misses (Count)
board.cache_hierarchy.l1d-cache-1.LockedRMWReadReq.mshrMissLatency::processor.cores1.core.data       881784                       # number of LockedRMWReadReq MSHR miss ticks (Tick)
board.cache_hierarchy.l1d-cache-1.LockedRMWReadReq.mshrMissLatency::total       881784                       # number of LockedRMWReadReq MSHR miss ticks (Tick)
board.cache_hierarchy.l1d-cache-1.LockedRMWReadReq.mshrMissRate::processor.cores1.core.data     0.083333                       # mshr miss rate for LockedRMWReadReq accesses (Ratio)
board.cache_hierarchy.l1d-cache-1.LockedRMWReadReq.mshrMissRate::total     0.083333                       # mshr miss rate for LockedRMWReadReq accesses (Ratio)
board.cache_hierarchy.l1d-cache-1.LockedRMWReadReq.avgMshrMissLatency::processor.cores1.core.data       220446                       # average LockedRMWReadReq mshr miss latency ((Tick/Count))
board.cache_hierarchy.l1d-cache-1.LockedRMWReadReq.avgMshrMissLatency::total       220446                       # average LockedRMWReadReq mshr miss latency ((Tick/Count))
board.cache_hierarchy.l1d-cache-1.LockedRMWWriteReq.hits::processor.cores1.core.data           48                       # number of LockedRMWWriteReq hits (Count)
board.cache_hierarchy.l1d-cache-1.LockedRMWWriteReq.hits::total           48                       # number of LockedRMWWriteReq hits (Count)
board.cache_hierarchy.l1d-cache-1.LockedRMWWriteReq.accesses::processor.cores1.core.data           48                       # number of LockedRMWWriteReq accesses(hits+misses) (Count)
board.cache_hierarchy.l1d-cache-1.LockedRMWWriteReq.accesses::total           48                       # number of LockedRMWWriteReq accesses(hits+misses) (Count)
board.cache_hierarchy.l1d-cache-1.ReadReq.hits::processor.cores1.core.data   2643371832                       # number of ReadReq hits (Count)
board.cache_hierarchy.l1d-cache-1.ReadReq.hits::total   2643371832                       # number of ReadReq hits (Count)
board.cache_hierarchy.l1d-cache-1.ReadReq.misses::processor.cores1.core.data      3143461                       # number of ReadReq misses (Count)
board.cache_hierarchy.l1d-cache-1.ReadReq.misses::total      3143461                       # number of ReadReq misses (Count)
board.cache_hierarchy.l1d-cache-1.ReadReq.missLatency::processor.cores1.core.data 328017636351                       # number of ReadReq miss ticks (Tick)
board.cache_hierarchy.l1d-cache-1.ReadReq.missLatency::total 328017636351                       # number of ReadReq miss ticks (Tick)
board.cache_hierarchy.l1d-cache-1.ReadReq.accesses::processor.cores1.core.data   2646515293                       # number of ReadReq accesses(hits+misses) (Count)
board.cache_hierarchy.l1d-cache-1.ReadReq.accesses::total   2646515293                       # number of ReadReq accesses(hits+misses) (Count)
board.cache_hierarchy.l1d-cache-1.ReadReq.missRate::processor.cores1.core.data     0.001188                       # miss rate for ReadReq accesses (Ratio)
board.cache_hierarchy.l1d-cache-1.ReadReq.missRate::total     0.001188                       # miss rate for ReadReq accesses (Ratio)
board.cache_hierarchy.l1d-cache-1.ReadReq.avgMissLatency::processor.cores1.core.data 104349.198654                       # average ReadReq miss latency ((Tick/Count))
board.cache_hierarchy.l1d-cache-1.ReadReq.avgMissLatency::total 104349.198654                       # average ReadReq miss latency ((Tick/Count))
board.cache_hierarchy.l1d-cache-1.ReadReq.mshrHits::processor.cores1.core.data       402796                       # number of ReadReq MSHR hits (Count)
board.cache_hierarchy.l1d-cache-1.ReadReq.mshrHits::total       402796                       # number of ReadReq MSHR hits (Count)
board.cache_hierarchy.l1d-cache-1.ReadReq.mshrMisses::processor.cores1.core.data      2740665                       # number of ReadReq MSHR misses (Count)
board.cache_hierarchy.l1d-cache-1.ReadReq.mshrMisses::total      2740665                       # number of ReadReq MSHR misses (Count)
board.cache_hierarchy.l1d-cache-1.ReadReq.mshrMissLatency::processor.cores1.core.data 322734496446                       # number of ReadReq MSHR miss ticks (Tick)
board.cache_hierarchy.l1d-cache-1.ReadReq.mshrMissLatency::total 322734496446                       # number of ReadReq MSHR miss ticks (Tick)
board.cache_hierarchy.l1d-cache-1.ReadReq.mshrMissRate::processor.cores1.core.data     0.001036                       # mshr miss rate for ReadReq accesses (Ratio)
board.cache_hierarchy.l1d-cache-1.ReadReq.mshrMissRate::total     0.001036                       # mshr miss rate for ReadReq accesses (Ratio)
board.cache_hierarchy.l1d-cache-1.ReadReq.avgMshrMissLatency::processor.cores1.core.data 117757.732684                       # average ReadReq mshr miss latency ((Tick/Count))
board.cache_hierarchy.l1d-cache-1.ReadReq.avgMshrMissLatency::total 117757.732684                       # average ReadReq mshr miss latency ((Tick/Count))
board.cache_hierarchy.l1d-cache-1.WriteReq.hits::processor.cores1.core.data   1324724255                       # number of WriteReq hits (Count)
board.cache_hierarchy.l1d-cache-1.WriteReq.hits::total   1324724255                       # number of WriteReq hits (Count)
board.cache_hierarchy.l1d-cache-1.WriteReq.misses::processor.cores1.core.data         7252                       # number of WriteReq misses (Count)
board.cache_hierarchy.l1d-cache-1.WriteReq.misses::total         7252                       # number of WriteReq misses (Count)
board.cache_hierarchy.l1d-cache-1.WriteReq.missLatency::processor.cores1.core.data    829251252                       # number of WriteReq miss ticks (Tick)
board.cache_hierarchy.l1d-cache-1.WriteReq.missLatency::total    829251252                       # number of WriteReq miss ticks (Tick)
board.cache_hierarchy.l1d-cache-1.WriteReq.accesses::processor.cores1.core.data   1324731507                       # number of WriteReq accesses(hits+misses) (Count)
board.cache_hierarchy.l1d-cache-1.WriteReq.accesses::total   1324731507                       # number of WriteReq accesses(hits+misses) (Count)
board.cache_hierarchy.l1d-cache-1.WriteReq.missRate::processor.cores1.core.data     0.000005                       # miss rate for WriteReq accesses (Ratio)
board.cache_hierarchy.l1d-cache-1.WriteReq.missRate::total     0.000005                       # miss rate for WriteReq accesses (Ratio)
board.cache_hierarchy.l1d-cache-1.WriteReq.avgMissLatency::processor.cores1.core.data 114347.938776                       # average WriteReq miss latency ((Tick/Count))
board.cache_hierarchy.l1d-cache-1.WriteReq.avgMissLatency::total 114347.938776                       # average WriteReq miss latency ((Tick/Count))
board.cache_hierarchy.l1d-cache-1.WriteReq.mshrHits::processor.cores1.core.data           31                       # number of WriteReq MSHR hits (Count)
board.cache_hierarchy.l1d-cache-1.WriteReq.mshrHits::total           31                       # number of WriteReq MSHR hits (Count)
board.cache_hierarchy.l1d-cache-1.WriteReq.mshrMisses::processor.cores1.core.data         7221                       # number of WriteReq MSHR misses (Count)
board.cache_hierarchy.l1d-cache-1.WriteReq.mshrMisses::total         7221                       # number of WriteReq MSHR misses (Count)
board.cache_hierarchy.l1d-cache-1.WriteReq.mshrMissLatency::processor.cores1.core.data    826556283                       # number of WriteReq MSHR miss ticks (Tick)
board.cache_hierarchy.l1d-cache-1.WriteReq.mshrMissLatency::total    826556283                       # number of WriteReq MSHR miss ticks (Tick)
board.cache_hierarchy.l1d-cache-1.WriteReq.mshrMissRate::processor.cores1.core.data     0.000005                       # mshr miss rate for WriteReq accesses (Ratio)
board.cache_hierarchy.l1d-cache-1.WriteReq.mshrMissRate::total     0.000005                       # mshr miss rate for WriteReq accesses (Ratio)
board.cache_hierarchy.l1d-cache-1.WriteReq.avgMshrMissLatency::processor.cores1.core.data 114465.625675                       # average WriteReq mshr miss latency ((Tick/Count))
board.cache_hierarchy.l1d-cache-1.WriteReq.avgMshrMissLatency::total 114465.625675                       # average WriteReq mshr miss latency ((Tick/Count))
board.cache_hierarchy.l1d-cache-1.power_state.pwrStateResidencyTicks::UNDEFINED 4108441573539                       # Cumulative time (in ticks) in various power states (Tick)
board.cache_hierarchy.l1d-cache-1.prefetcher.demandMshrMisses      2747886                       # demands not covered by prefetchs (Count)
board.cache_hierarchy.l1d-cache-1.prefetcher.pfIssued    639081436                       # number of hwpf issued (Count)
board.cache_hierarchy.l1d-cache-1.prefetcher.pfUnused       584432                       # number of HardPF blocks evicted w/o reference (Count)
board.cache_hierarchy.l1d-cache-1.prefetcher.pfUseful    163114676                       # number of useful prefetch (Count)
board.cache_hierarchy.l1d-cache-1.prefetcher.pfUsefulButMiss            0                       # number of hit on prefetch but cache block is not in an usable state (Count)
board.cache_hierarchy.l1d-cache-1.prefetcher.accuracy     0.255233                       # accuracy of the prefetcher (Count)
board.cache_hierarchy.l1d-cache-1.prefetcher.coverage     0.983433                       # coverage brought by this prefetcher (Count)
board.cache_hierarchy.l1d-cache-1.prefetcher.pfHitInCache    468212747                       # number of prefetches hitting in cache (Count)
board.cache_hierarchy.l1d-cache-1.prefetcher.pfHitInMSHR      6766750                       # number of prefetches hitting in a MSHR (Count)
board.cache_hierarchy.l1d-cache-1.prefetcher.pfHitInWB            0                       # number of prefetches hit in the Write Buffer (Count)
board.cache_hierarchy.l1d-cache-1.prefetcher.pfLate    474979497                       # number of late prefetches (hitting in cache, MSHR or WB) (Count)
board.cache_hierarchy.l1d-cache-1.prefetcher.pfIdentified    639081456                       # number of prefetch candidates identified (Count)
board.cache_hierarchy.l1d-cache-1.prefetcher.pfBufferHit           10                       # number of redundant prefetches already in prefetch queue (Count)
board.cache_hierarchy.l1d-cache-1.prefetcher.pfInCache            0                       # number of redundant prefetches already in cache/mshr dropped (Count)
board.cache_hierarchy.l1d-cache-1.prefetcher.pfRemovedDemand            5                       # number of prefetches dropped due to a demand for the same address (Count)
board.cache_hierarchy.l1d-cache-1.prefetcher.pfRemovedFull            0                       # number of prefetches dropped due to prefetch queue size (Count)
board.cache_hierarchy.l1d-cache-1.prefetcher.pfSpanPage     25977604                       # number of prefetches that crossed the page (Count)
board.cache_hierarchy.l1d-cache-1.prefetcher.pfUsefulSpanPage     25874895                       # number of prefetches that is useful and crossed the page (Count)
board.cache_hierarchy.l1d-cache-1.prefetcher.power_state.pwrStateResidencyTicks::UNDEFINED 4108441573539                       # Cumulative time (in ticks) in various power states (Tick)
board.cache_hierarchy.l1d-cache-1.tags.tagsInUse   511.992681                       # Average ticks per tags in use ((Tick/Count))
board.cache_hierarchy.l1d-cache-1.tags.totalRefs   4134946008                       # Total number of references to valid blocks. (Count)
board.cache_hierarchy.l1d-cache-1.tags.sampledRefs    166849829                       # Sample count of references to valid blocks. (Count)
board.cache_hierarchy.l1d-cache-1.tags.avgRefs    24.782441                       # Average number of references to valid blocks. ((Count/Count))
board.cache_hierarchy.l1d-cache-1.tags.warmupTick       228771                       # The tick when the warmup percentage was hit. (Tick)
board.cache_hierarchy.l1d-cache-1.tags.occupancies::cache_hierarchy.l1d-cache-1.prefetcher   501.856353                       # Average occupied blocks per tick, per requestor ((Count/Tick))
board.cache_hierarchy.l1d-cache-1.tags.occupancies::processor.cores1.core.data    10.136328                       # Average occupied blocks per tick, per requestor ((Count/Tick))
board.cache_hierarchy.l1d-cache-1.tags.avgOccs::cache_hierarchy.l1d-cache-1.prefetcher     0.980188                       # Average percentage of cache occupancy ((Ratio/Tick))
board.cache_hierarchy.l1d-cache-1.tags.avgOccs::processor.cores1.core.data     0.019798                       # Average percentage of cache occupancy ((Ratio/Tick))
board.cache_hierarchy.l1d-cache-1.tags.avgOccs::total     0.999986                       # Average percentage of cache occupancy ((Ratio/Tick))
board.cache_hierarchy.l1d-cache-1.tags.occupanciesTaskId::1022          391                       # Occupied blocks per task id (Count)
board.cache_hierarchy.l1d-cache-1.tags.occupanciesTaskId::1024          121                       # Occupied blocks per task id (Count)
board.cache_hierarchy.l1d-cache-1.tags.ageTaskId_1022::1          257                       # Occupied blocks per task id, per block age (Count)
board.cache_hierarchy.l1d-cache-1.tags.ageTaskId_1022::3          134                       # Occupied blocks per task id, per block age (Count)
board.cache_hierarchy.l1d-cache-1.tags.ageTaskId_1024::0           14                       # Occupied blocks per task id, per block age (Count)
board.cache_hierarchy.l1d-cache-1.tags.ageTaskId_1024::1          104                       # Occupied blocks per task id, per block age (Count)
board.cache_hierarchy.l1d-cache-1.tags.ageTaskId_1024::3            3                       # Occupied blocks per task id, per block age (Count)
board.cache_hierarchy.l1d-cache-1.tags.ratioOccsTaskId::1022     0.763672                       # Ratio of occupied blocks and all blocks, per task id (Ratio)
board.cache_hierarchy.l1d-cache-1.tags.ratioOccsTaskId::1024     0.236328                       # Ratio of occupied blocks and all blocks, per task id (Ratio)
board.cache_hierarchy.l1d-cache-1.tags.tagAccesses  31936824997                       # Number of tag accesses (Count)
board.cache_hierarchy.l1d-cache-1.tags.dataAccesses  31936824997                       # Number of data accesses (Count)
board.cache_hierarchy.l1d-cache-1.tags.power_state.pwrStateResidencyTicks::UNDEFINED 4108441573539                       # Cumulative time (in ticks) in various power states (Tick)
board.cache_hierarchy.l1d-cache-2.demandHits::processor.cores2.core.data   3968052445                       # number of demand (read+write) hits (Count)
board.cache_hierarchy.l1d-cache-2.demandHits::total   3968052445                       # number of demand (read+write) hits (Count)
board.cache_hierarchy.l1d-cache-2.overallHits::processor.cores2.core.data   3968052445                       # number of overall hits (Count)
board.cache_hierarchy.l1d-cache-2.overallHits::total   3968052445                       # number of overall hits (Count)
board.cache_hierarchy.l1d-cache-2.demandMisses::processor.cores2.core.data      3194354                       # number of demand (read+write) misses (Count)
board.cache_hierarchy.l1d-cache-2.demandMisses::total      3194354                       # number of demand (read+write) misses (Count)
board.cache_hierarchy.l1d-cache-2.overallMisses::processor.cores2.core.data      3194354                       # number of overall misses (Count)
board.cache_hierarchy.l1d-cache-2.overallMisses::total      3194354                       # number of overall misses (Count)
board.cache_hierarchy.l1d-cache-2.demandMissLatency::processor.cores2.core.data 328865779026                       # number of demand (read+write) miss ticks (Tick)
board.cache_hierarchy.l1d-cache-2.demandMissLatency::total 328865779026                       # number of demand (read+write) miss ticks (Tick)
board.cache_hierarchy.l1d-cache-2.overallMissLatency::processor.cores2.core.data 328865779026                       # number of overall miss ticks (Tick)
board.cache_hierarchy.l1d-cache-2.overallMissLatency::total 328865779026                       # number of overall miss ticks (Tick)
board.cache_hierarchy.l1d-cache-2.demandAccesses::processor.cores2.core.data   3971246799                       # number of demand (read+write) accesses (Count)
board.cache_hierarchy.l1d-cache-2.demandAccesses::total   3971246799                       # number of demand (read+write) accesses (Count)
board.cache_hierarchy.l1d-cache-2.overallAccesses::processor.cores2.core.data   3971246799                       # number of overall (read+write) accesses (Count)
board.cache_hierarchy.l1d-cache-2.overallAccesses::total   3971246799                       # number of overall (read+write) accesses (Count)
board.cache_hierarchy.l1d-cache-2.demandMissRate::processor.cores2.core.data     0.000804                       # miss rate for demand accesses (Ratio)
board.cache_hierarchy.l1d-cache-2.demandMissRate::total     0.000804                       # miss rate for demand accesses (Ratio)
board.cache_hierarchy.l1d-cache-2.overallMissRate::processor.cores2.core.data     0.000804                       # miss rate for overall accesses (Ratio)
board.cache_hierarchy.l1d-cache-2.overallMissRate::total     0.000804                       # miss rate for overall accesses (Ratio)
board.cache_hierarchy.l1d-cache-2.demandAvgMissLatency::processor.cores2.core.data 102952.202237                       # average overall miss latency in ticks ((Tick/Count))
board.cache_hierarchy.l1d-cache-2.demandAvgMissLatency::total 102952.202237                       # average overall miss latency in ticks ((Tick/Count))
board.cache_hierarchy.l1d-cache-2.overallAvgMissLatency::processor.cores2.core.data 102952.202237                       # average overall miss latency ((Tick/Count))
board.cache_hierarchy.l1d-cache-2.overallAvgMissLatency::total 102952.202237                       # average overall miss latency ((Tick/Count))
board.cache_hierarchy.l1d-cache-2.blockedCycles::no_mshrs            0                       # number of cycles access was blocked (Cycle)
board.cache_hierarchy.l1d-cache-2.blockedCycles::no_wbuffers            0                       # number of cycles access was blocked (Cycle)
board.cache_hierarchy.l1d-cache-2.blockedCycles::no_targets            0                       # number of cycles access was blocked (Cycle)
board.cache_hierarchy.l1d-cache-2.blockedCauses::no_mshrs            0                       # number of times access was blocked (Count)
board.cache_hierarchy.l1d-cache-2.blockedCauses::no_wbuffers            0                       # number of times access was blocked (Count)
board.cache_hierarchy.l1d-cache-2.blockedCauses::no_targets            0                       # number of times access was blocked (Count)
board.cache_hierarchy.l1d-cache-2.avgBlocked::no_mshrs          nan                       # average number of cycles each access was blocked ((Cycle/Count))
board.cache_hierarchy.l1d-cache-2.avgBlocked::no_wbuffers          nan                       # average number of cycles each access was blocked ((Cycle/Count))
board.cache_hierarchy.l1d-cache-2.avgBlocked::no_targets          nan                       # average number of cycles each access was blocked ((Cycle/Count))
board.cache_hierarchy.l1d-cache-2.writebacks::writebacks       590076                       # number of writebacks (Count)
board.cache_hierarchy.l1d-cache-2.writebacks::total       590076                       # number of writebacks (Count)
board.cache_hierarchy.l1d-cache-2.demandMshrHits::processor.cores2.core.data       446468                       # number of demand (read+write) MSHR hits (Count)
board.cache_hierarchy.l1d-cache-2.demandMshrHits::total       446468                       # number of demand (read+write) MSHR hits (Count)
board.cache_hierarchy.l1d-cache-2.overallMshrHits::processor.cores2.core.data       446468                       # number of overall MSHR hits (Count)
board.cache_hierarchy.l1d-cache-2.overallMshrHits::total       446468                       # number of overall MSHR hits (Count)
board.cache_hierarchy.l1d-cache-2.demandMshrMisses::processor.cores2.core.data      2747886                       # number of demand (read+write) MSHR misses (Count)
board.cache_hierarchy.l1d-cache-2.demandMshrMisses::total      2747886                       # number of demand (read+write) MSHR misses (Count)
board.cache_hierarchy.l1d-cache-2.overallMshrMisses::cache_hierarchy.l1d-cache-2.prefetcher    164101939                       # number of overall MSHR misses (Count)
board.cache_hierarchy.l1d-cache-2.overallMshrMisses::processor.cores2.core.data      2747886                       # number of overall MSHR misses (Count)
board.cache_hierarchy.l1d-cache-2.overallMshrMisses::total    166849825                       # number of overall MSHR misses (Count)
board.cache_hierarchy.l1d-cache-2.demandMshrMissLatency::processor.cores2.core.data 323521998489                       # number of demand (read+write) MSHR miss ticks (Tick)
board.cache_hierarchy.l1d-cache-2.demandMshrMissLatency::total 323521998489                       # number of demand (read+write) MSHR miss ticks (Tick)
board.cache_hierarchy.l1d-cache-2.overallMshrMissLatency::cache_hierarchy.l1d-cache-2.prefetcher 3567879534799                       # number of overall MSHR miss ticks (Tick)
board.cache_hierarchy.l1d-cache-2.overallMshrMissLatency::processor.cores2.core.data 323521998489                       # number of overall MSHR miss ticks (Tick)
board.cache_hierarchy.l1d-cache-2.overallMshrMissLatency::total 3891401533288                       # number of overall MSHR miss ticks (Tick)
board.cache_hierarchy.l1d-cache-2.demandMshrMissRate::processor.cores2.core.data     0.000692                       # mshr miss ratio for demand accesses (Ratio)
board.cache_hierarchy.l1d-cache-2.demandMshrMissRate::total     0.000692                       # mshr miss ratio for demand accesses (Ratio)
board.cache_hierarchy.l1d-cache-2.overallMshrMissRate::cache_hierarchy.l1d-cache-2.prefetcher          inf                       # mshr miss ratio for overall accesses (Ratio)
board.cache_hierarchy.l1d-cache-2.overallMshrMissRate::processor.cores2.core.data     0.000692                       # mshr miss ratio for overall accesses (Ratio)
board.cache_hierarchy.l1d-cache-2.overallMshrMissRate::total     0.042014                       # mshr miss ratio for overall accesses (Ratio)
board.cache_hierarchy.l1d-cache-2.demandAvgMshrMissLatency::processor.cores2.core.data 117734.869092                       # average overall mshr miss latency ((Tick/Count))
board.cache_hierarchy.l1d-cache-2.demandAvgMshrMissLatency::total 117734.869092                       # average overall mshr miss latency ((Tick/Count))
board.cache_hierarchy.l1d-cache-2.overallAvgMshrMissLatency::cache_hierarchy.l1d-cache-2.prefetcher 21741.848735                       # average overall mshr miss latency ((Tick/Count))
board.cache_hierarchy.l1d-cache-2.overallAvgMshrMissLatency::processor.cores2.core.data 117734.869092                       # average overall mshr miss latency ((Tick/Count))
board.cache_hierarchy.l1d-cache-2.overallAvgMshrMissLatency::total 23322.778632                       # average overall mshr miss latency ((Tick/Count))
board.cache_hierarchy.l1d-cache-2.replacements    166849316                       # number of replacements (Count)
board.cache_hierarchy.l1d-cache-2.HardPFReq.mshrMisses::cache_hierarchy.l1d-cache-2.prefetcher    164101939                       # number of HardPFReq MSHR misses (Count)
board.cache_hierarchy.l1d-cache-2.HardPFReq.mshrMisses::total    164101939                       # number of HardPFReq MSHR misses (Count)
board.cache_hierarchy.l1d-cache-2.HardPFReq.mshrMissLatency::cache_hierarchy.l1d-cache-2.prefetcher 3567879534799                       # number of HardPFReq MSHR miss ticks (Tick)
board.cache_hierarchy.l1d-cache-2.HardPFReq.mshrMissLatency::total 3567879534799                       # number of HardPFReq MSHR miss ticks (Tick)
board.cache_hierarchy.l1d-cache-2.HardPFReq.mshrMissRate::cache_hierarchy.l1d-cache-2.prefetcher          inf                       # mshr miss rate for HardPFReq accesses (Ratio)
board.cache_hierarchy.l1d-cache-2.HardPFReq.mshrMissRate::total          inf                       # mshr miss rate for HardPFReq accesses (Ratio)
board.cache_hierarchy.l1d-cache-2.HardPFReq.avgMshrMissLatency::cache_hierarchy.l1d-cache-2.prefetcher 21741.848735                       # average HardPFReq mshr miss latency ((Tick/Count))
board.cache_hierarchy.l1d-cache-2.HardPFReq.avgMshrMissLatency::total 21741.848735                       # average HardPFReq mshr miss latency ((Tick/Count))
board.cache_hierarchy.l1d-cache-2.LockedRMWReadReq.hits::processor.cores2.core.data           44                       # number of LockedRMWReadReq hits (Count)
board.cache_hierarchy.l1d-cache-2.LockedRMWReadReq.hits::total           44                       # number of LockedRMWReadReq hits (Count)
board.cache_hierarchy.l1d-cache-2.LockedRMWReadReq.misses::processor.cores2.core.data            4                       # number of LockedRMWReadReq misses (Count)
board.cache_hierarchy.l1d-cache-2.LockedRMWReadReq.misses::total            4                       # number of LockedRMWReadReq misses (Count)
board.cache_hierarchy.l1d-cache-2.LockedRMWReadReq.missLatency::processor.cores2.core.data       434232                       # number of LockedRMWReadReq miss ticks (Tick)
board.cache_hierarchy.l1d-cache-2.LockedRMWReadReq.missLatency::total       434232                       # number of LockedRMWReadReq miss ticks (Tick)
board.cache_hierarchy.l1d-cache-2.LockedRMWReadReq.accesses::processor.cores2.core.data           48                       # number of LockedRMWReadReq accesses(hits+misses) (Count)
board.cache_hierarchy.l1d-cache-2.LockedRMWReadReq.accesses::total           48                       # number of LockedRMWReadReq accesses(hits+misses) (Count)
board.cache_hierarchy.l1d-cache-2.LockedRMWReadReq.missRate::processor.cores2.core.data     0.083333                       # miss rate for LockedRMWReadReq accesses (Ratio)
board.cache_hierarchy.l1d-cache-2.LockedRMWReadReq.missRate::total     0.083333                       # miss rate for LockedRMWReadReq accesses (Ratio)
board.cache_hierarchy.l1d-cache-2.LockedRMWReadReq.avgMissLatency::processor.cores2.core.data       108558                       # average LockedRMWReadReq miss latency ((Tick/Count))
board.cache_hierarchy.l1d-cache-2.LockedRMWReadReq.avgMissLatency::total       108558                       # average LockedRMWReadReq miss latency ((Tick/Count))
board.cache_hierarchy.l1d-cache-2.LockedRMWReadReq.mshrMisses::processor.cores2.core.data            4                       # number of LockedRMWReadReq MSHR misses (Count)
board.cache_hierarchy.l1d-cache-2.LockedRMWReadReq.mshrMisses::total            4                       # number of LockedRMWReadReq MSHR misses (Count)
board.cache_hierarchy.l1d-cache-2.LockedRMWReadReq.mshrMissLatency::processor.cores2.core.data       881784                       # number of LockedRMWReadReq MSHR miss ticks (Tick)
board.cache_hierarchy.l1d-cache-2.LockedRMWReadReq.mshrMissLatency::total       881784                       # number of LockedRMWReadReq MSHR miss ticks (Tick)
board.cache_hierarchy.l1d-cache-2.LockedRMWReadReq.mshrMissRate::processor.cores2.core.data     0.083333                       # mshr miss rate for LockedRMWReadReq accesses (Ratio)
board.cache_hierarchy.l1d-cache-2.LockedRMWReadReq.mshrMissRate::total     0.083333                       # mshr miss rate for LockedRMWReadReq accesses (Ratio)
board.cache_hierarchy.l1d-cache-2.LockedRMWReadReq.avgMshrMissLatency::processor.cores2.core.data       220446                       # average LockedRMWReadReq mshr miss latency ((Tick/Count))
board.cache_hierarchy.l1d-cache-2.LockedRMWReadReq.avgMshrMissLatency::total       220446                       # average LockedRMWReadReq mshr miss latency ((Tick/Count))
board.cache_hierarchy.l1d-cache-2.LockedRMWWriteReq.hits::processor.cores2.core.data           48                       # number of LockedRMWWriteReq hits (Count)
board.cache_hierarchy.l1d-cache-2.LockedRMWWriteReq.hits::total           48                       # number of LockedRMWWriteReq hits (Count)
board.cache_hierarchy.l1d-cache-2.LockedRMWWriteReq.accesses::processor.cores2.core.data           48                       # number of LockedRMWWriteReq accesses(hits+misses) (Count)
board.cache_hierarchy.l1d-cache-2.LockedRMWWriteReq.accesses::total           48                       # number of LockedRMWWriteReq accesses(hits+misses) (Count)
board.cache_hierarchy.l1d-cache-2.ReadReq.hits::processor.cores2.core.data   2643328190                       # number of ReadReq hits (Count)
board.cache_hierarchy.l1d-cache-2.ReadReq.hits::total   2643328190                       # number of ReadReq hits (Count)
board.cache_hierarchy.l1d-cache-2.ReadReq.misses::processor.cores2.core.data      3187102                       # number of ReadReq misses (Count)
board.cache_hierarchy.l1d-cache-2.ReadReq.misses::total      3187102                       # number of ReadReq misses (Count)
board.cache_hierarchy.l1d-cache-2.ReadReq.missLatency::processor.cores2.core.data 328035734235                       # number of ReadReq miss ticks (Tick)
board.cache_hierarchy.l1d-cache-2.ReadReq.missLatency::total 328035734235                       # number of ReadReq miss ticks (Tick)
board.cache_hierarchy.l1d-cache-2.ReadReq.accesses::processor.cores2.core.data   2646515292                       # number of ReadReq accesses(hits+misses) (Count)
board.cache_hierarchy.l1d-cache-2.ReadReq.accesses::total   2646515292                       # number of ReadReq accesses(hits+misses) (Count)
board.cache_hierarchy.l1d-cache-2.ReadReq.missRate::processor.cores2.core.data     0.001204                       # miss rate for ReadReq accesses (Ratio)
board.cache_hierarchy.l1d-cache-2.ReadReq.missRate::total     0.001204                       # miss rate for ReadReq accesses (Ratio)
board.cache_hierarchy.l1d-cache-2.ReadReq.avgMissLatency::processor.cores2.core.data 102926.023150                       # average ReadReq miss latency ((Tick/Count))
board.cache_hierarchy.l1d-cache-2.ReadReq.avgMissLatency::total 102926.023150                       # average ReadReq miss latency ((Tick/Count))
board.cache_hierarchy.l1d-cache-2.ReadReq.mshrHits::processor.cores2.core.data       446437                       # number of ReadReq MSHR hits (Count)
board.cache_hierarchy.l1d-cache-2.ReadReq.mshrHits::total       446437                       # number of ReadReq MSHR hits (Count)
board.cache_hierarchy.l1d-cache-2.ReadReq.mshrMisses::processor.cores2.core.data      2740665                       # number of ReadReq MSHR misses (Count)
board.cache_hierarchy.l1d-cache-2.ReadReq.mshrMisses::total      2740665                       # number of ReadReq MSHR misses (Count)
board.cache_hierarchy.l1d-cache-2.ReadReq.mshrMissLatency::processor.cores2.core.data 322694649000                       # number of ReadReq MSHR miss ticks (Tick)
board.cache_hierarchy.l1d-cache-2.ReadReq.mshrMissLatency::total 322694649000                       # number of ReadReq MSHR miss ticks (Tick)
board.cache_hierarchy.l1d-cache-2.ReadReq.mshrMissRate::processor.cores2.core.data     0.001036                       # mshr miss rate for ReadReq accesses (Ratio)
board.cache_hierarchy.l1d-cache-2.ReadReq.mshrMissRate::total     0.001036                       # mshr miss rate for ReadReq accesses (Ratio)
board.cache_hierarchy.l1d-cache-2.ReadReq.avgMshrMissLatency::processor.cores2.core.data 117743.193349                       # average ReadReq mshr miss latency ((Tick/Count))
board.cache_hierarchy.l1d-cache-2.ReadReq.avgMshrMissLatency::total 117743.193349                       # average ReadReq mshr miss latency ((Tick/Count))
board.cache_hierarchy.l1d-cache-2.WriteReq.hits::processor.cores2.core.data   1324724255                       # number of WriteReq hits (Count)
board.cache_hierarchy.l1d-cache-2.WriteReq.hits::total   1324724255                       # number of WriteReq hits (Count)
board.cache_hierarchy.l1d-cache-2.WriteReq.misses::processor.cores2.core.data         7252                       # number of WriteReq misses (Count)
board.cache_hierarchy.l1d-cache-2.WriteReq.misses::total         7252                       # number of WriteReq misses (Count)
board.cache_hierarchy.l1d-cache-2.WriteReq.missLatency::processor.cores2.core.data    830044791                       # number of WriteReq miss ticks (Tick)
board.cache_hierarchy.l1d-cache-2.WriteReq.missLatency::total    830044791                       # number of WriteReq miss ticks (Tick)
board.cache_hierarchy.l1d-cache-2.WriteReq.accesses::processor.cores2.core.data   1324731507                       # number of WriteReq accesses(hits+misses) (Count)
board.cache_hierarchy.l1d-cache-2.WriteReq.accesses::total   1324731507                       # number of WriteReq accesses(hits+misses) (Count)
board.cache_hierarchy.l1d-cache-2.WriteReq.missRate::processor.cores2.core.data     0.000005                       # miss rate for WriteReq accesses (Ratio)
board.cache_hierarchy.l1d-cache-2.WriteReq.missRate::total     0.000005                       # miss rate for WriteReq accesses (Ratio)
board.cache_hierarchy.l1d-cache-2.WriteReq.avgMissLatency::processor.cores2.core.data 114457.362245                       # average WriteReq miss latency ((Tick/Count))
board.cache_hierarchy.l1d-cache-2.WriteReq.avgMissLatency::total 114457.362245                       # average WriteReq miss latency ((Tick/Count))
board.cache_hierarchy.l1d-cache-2.WriteReq.mshrHits::processor.cores2.core.data           31                       # number of WriteReq MSHR hits (Count)
board.cache_hierarchy.l1d-cache-2.WriteReq.mshrHits::total           31                       # number of WriteReq MSHR hits (Count)
board.cache_hierarchy.l1d-cache-2.WriteReq.mshrMisses::processor.cores2.core.data         7221                       # number of WriteReq MSHR misses (Count)
board.cache_hierarchy.l1d-cache-2.WriteReq.mshrMisses::total         7221                       # number of WriteReq MSHR misses (Count)
board.cache_hierarchy.l1d-cache-2.WriteReq.mshrMissLatency::processor.cores2.core.data    827349489                       # number of WriteReq MSHR miss ticks (Tick)
board.cache_hierarchy.l1d-cache-2.WriteReq.mshrMissLatency::total    827349489                       # number of WriteReq MSHR miss ticks (Tick)
board.cache_hierarchy.l1d-cache-2.WriteReq.mshrMissRate::processor.cores2.core.data     0.000005                       # mshr miss rate for WriteReq accesses (Ratio)
board.cache_hierarchy.l1d-cache-2.WriteReq.mshrMissRate::total     0.000005                       # mshr miss rate for WriteReq accesses (Ratio)
board.cache_hierarchy.l1d-cache-2.WriteReq.avgMshrMissLatency::processor.cores2.core.data 114575.472788                       # average WriteReq mshr miss latency ((Tick/Count))
board.cache_hierarchy.l1d-cache-2.WriteReq.avgMshrMissLatency::total 114575.472788                       # average WriteReq mshr miss latency ((Tick/Count))
board.cache_hierarchy.l1d-cache-2.power_state.pwrStateResidencyTicks::UNDEFINED 4108441573539                       # Cumulative time (in ticks) in various power states (Tick)
board.cache_hierarchy.l1d-cache-2.prefetcher.demandMshrMisses      2747886                       # demands not covered by prefetchs (Count)
board.cache_hierarchy.l1d-cache-2.prefetcher.pfIssued    639081445                       # number of hwpf issued (Count)
board.cache_hierarchy.l1d-cache-2.prefetcher.pfUnused       584432                       # number of HardPF blocks evicted w/o reference (Count)
board.cache_hierarchy.l1d-cache-2.prefetcher.pfUseful    163071035                       # number of useful prefetch (Count)
board.cache_hierarchy.l1d-cache-2.prefetcher.pfUsefulButMiss            0                       # number of hit on prefetch but cache block is not in an usable state (Count)
board.cache_hierarchy.l1d-cache-2.prefetcher.accuracy     0.255165                       # accuracy of the prefetcher (Count)
board.cache_hierarchy.l1d-cache-2.prefetcher.coverage     0.983428                       # coverage brought by this prefetcher (Count)
board.cache_hierarchy.l1d-cache-2.prefetcher.pfHitInCache    469036707                       # number of prefetches hitting in cache (Count)
board.cache_hierarchy.l1d-cache-2.prefetcher.pfHitInMSHR      5942799                       # number of prefetches hitting in a MSHR (Count)
board.cache_hierarchy.l1d-cache-2.prefetcher.pfHitInWB            0                       # number of prefetches hit in the Write Buffer (Count)
board.cache_hierarchy.l1d-cache-2.prefetcher.pfLate    474979506                       # number of late prefetches (hitting in cache, MSHR or WB) (Count)
board.cache_hierarchy.l1d-cache-2.prefetcher.pfIdentified    639081456                       # number of prefetch candidates identified (Count)
board.cache_hierarchy.l1d-cache-2.prefetcher.pfBufferHit            5                       # number of redundant prefetches already in prefetch queue (Count)
board.cache_hierarchy.l1d-cache-2.prefetcher.pfInCache            0                       # number of redundant prefetches already in cache/mshr dropped (Count)
board.cache_hierarchy.l1d-cache-2.prefetcher.pfRemovedDemand            3                       # number of prefetches dropped due to a demand for the same address (Count)
board.cache_hierarchy.l1d-cache-2.prefetcher.pfRemovedFull            0                       # number of prefetches dropped due to prefetch queue size (Count)
board.cache_hierarchy.l1d-cache-2.prefetcher.pfSpanPage     25977604                       # number of prefetches that crossed the page (Count)
board.cache_hierarchy.l1d-cache-2.prefetcher.pfUsefulSpanPage     25884139                       # number of prefetches that is useful and crossed the page (Count)
board.cache_hierarchy.l1d-cache-2.prefetcher.power_state.pwrStateResidencyTicks::UNDEFINED 4108441573539                       # Cumulative time (in ticks) in various power states (Tick)
board.cache_hierarchy.l1d-cache-2.tags.tagsInUse   511.992686                       # Average ticks per tags in use ((Tick/Count))
board.cache_hierarchy.l1d-cache-2.tags.totalRefs   4134902366                       # Total number of references to valid blocks. (Count)
board.cache_hierarchy.l1d-cache-2.tags.sampledRefs    166849829                       # Sample count of references to valid blocks. (Count)
board.cache_hierarchy.l1d-cache-2.tags.avgRefs    24.782179                       # Average number of references to valid blocks. ((Count/Count))
board.cache_hierarchy.l1d-cache-2.tags.warmupTick       223776                       # The tick when the warmup percentage was hit. (Tick)
[...]
board.processor.cores3.core.commitStats0.committedInstType::SimdCmp            6      0.00%     41.42% # Class of committed instruction. (Count)
board.processor.cores3.core.commitStats0.committedInstType::SimdCvt      3620100      0.03%     41.45% # Class of committed instruction. (Count)
board.processor.cores3.core.commitStats0.committedInstType::SimdMisc     10869862      0.10%     41.54% # Class of committed instruction. (Count)
board.processor.cores3.core.commitStats0.committedInstType::SimdMult     14480000      0.13%     41.67% # Class of committed instruction. (Count)
board.processor.cores3.core.commitStats0.committedInstType::SimdMultAcc            0      0.00%     41.67% # Class of committed instruction. (Count)
board.processor.cores3.core.commitStats0.committedInstType::SimdMatMultAcc            0      0.00%     41.67% # Class of committed instruction. (Count)
board.processor.cores3.core.commitStats0.committedInstType::SimdShift     15146403      0.13%     41.80% # Class of committed instruction. (Count)
board.processor.cores3.core.commitStats0.committedInstType::SimdShiftAcc            0      0.00%     41.80% # Class of committed instruction. (Count)
board.processor.cores3.core.commitStats0.committedInstType::SimdDiv            0      0.00%     41.80% # Class of committed instruction. (Count)
board.processor.cores3.core.commitStats0.committedInstType::SimdSqrt            0      0.00%     41.80% # Class of committed instruction. (Count)
board.processor.cores3.core.commitStats0.committedInstType::SimdFloatAdd   1324194563     11.63%     53.44% # Class of committed instruction. (Count)
board.processor.cores3.core.commitStats0.committedInstType::SimdFloatAlu            0      0.00%     53.44% # Class of committed instruction. (Count)
board.processor.cores3.core.commitStats0.committedInstType::SimdFloatCmp            0      0.00%     53.44% # Class of committed instruction. (Count)
board.processor.cores3.core.commitStats0.committedInstType::SimdFloatCvt      3620007      0.03%     53.47% # Class of committed instruction. (Count)
board.processor.cores3.core.commitStats0.committedInstType::SimdFloatDiv      3620000      0.03%     53.50% # Class of committed instruction. (Count)
board.processor.cores3.core.commitStats0.committedInstType::SimdFloatMisc            0      0.00%     53.50% # Class of committed instruction. (Count)
board.processor.cores3.core.commitStats0.committedInstType::SimdFloatMult   1322300002     11.62%     65.12% # Class of committed instruction. (Count)
board.processor.cores3.core.commitStats0.committedInstType::SimdFloatMultAcc            0      0.00%     65.12% # Class of committed instruction. (Count)
board.processor.cores3.core.commitStats0.committedInstType::SimdFloatMatMultAcc            0      0.00%     65.12% # Class of committed instruction. (Count)
board.processor.cores3.core.commitStats0.committedInstType::SimdFloatSqrt            0      0.00%     65.12% # Class of committed instruction. (Count)
board.processor.cores3.core.commitStats0.committedInstType::SimdReduceAdd            0      0.00%     65.12% # Class of committed instruction. (Count)
board.processor.cores3.core.commitStats0.committedInstType::SimdReduceAlu            0      0.00%     65.12% # Class of committed instruction. (Count)
board.processor.cores3.core.commitStats0.committedInstType::SimdReduceCmp            0      0.00%     65.12% # Class of committed instruction. (Count)
board.processor.cores3.core.commitStats0.committedInstType::SimdFloatReduceAdd            0      0.00%     65.12% # Class of committed instruction. (Count)
board.processor.cores3.core.commitStats0.committedInstType::SimdFloatReduceCmp            0      0.00%     65.12% # Class of committed instruction. (Count)
board.processor.cores3.core.commitStats0.committedInstType::SimdAes            0      0.00%     65.12% # Class of committed instruction. (Count)
board.processor.cores3.core.commitStats0.committedInstType::SimdAesMix            0      0.00%     65.12% # Class of committed instruction. (Count)
board.processor.cores3.core.commitStats0.committedInstType::SimdSha1Hash            0      0.00%     65.12% # Class of committed instruction. (Count)
board.processor.cores3.core.commitStats0.committedInstType::SimdSha1Hash2            0      0.00%     65.12% # Class of committed instruction. (Count)
board.processor.cores3.core.commitStats0.committedInstType::SimdSha256Hash            0      0.00%     65.12% # Class of committed instruction. (Count)
board.processor.cores3.core.commitStats0.committedInstType::SimdSha256Hash2            0      0.00%     65.12% # Class of committed instruction. (Count)
board.processor.cores3.core.commitStats0.committedInstType::SimdShaSigma2            0      0.00%     65.12% # Class of committed instruction. (Count)
board.processor.cores3.core.commitStats0.committedInstType::SimdShaSigma3            0      0.00%     65.12% # Class of committed instruction. (Count)
board.processor.cores3.core.commitStats0.committedInstType::SimdSha3            0      0.00%     65.12% # Class of committed instruction. (Count)
board.processor.cores3.core.commitStats0.committedInstType::SimdSm4e            0      0.00%     65.12% # Class of committed instruction. (Count)
board.processor.cores3.core.commitStats0.committedInstType::SimdCrc            0      0.00%     65.12% # Class of committed instruction. (Count)
board.processor.cores3.core.commitStats0.committedInstType::SimdPredAlu            0      0.00%     65.12% # Class of committed instruction. (Count)
board.processor.cores3.core.commitStats0.committedInstType::SimdDotProd            0      0.00%     65.12% # Class of committed instruction. (Count)
board.processor.cores3.core.commitStats0.committedInstType::Matrix            0      0.00%     65.12% # Class of committed instruction. (Count)
board.processor.cores3.core.commitStats0.committedInstType::MatrixMov            0      0.00%     65.12% # Class of committed instruction. (Count)
board.processor.cores3.core.commitStats0.committedInstType::MatrixOP            0      0.00%     65.12% # Class of committed instruction. (Count)
board.processor.cores3.core.commitStats0.committedInstType::MemRead        20585      0.00%     65.12% # Class of committed instruction. (Count)
board.processor.cores3.core.commitStats0.committedInstType::MemWrite        10978      0.00%     65.12% # Class of committed instruction. (Count)
board.processor.cores3.core.commitStats0.committedInstType::FloatMemRead   2646494752     23.25%     88.36% # Class of committed instruction. (Count)
board.processor.cores3.core.commitStats0.committedInstType::FloatMemWrite   1324720577     11.64%    100.00% # Class of committed instruction. (Count)
board.processor.cores3.core.commitStats0.committedInstType::InstPrefetch            0      0.00%    100.00% # Class of committed instruction. (Count)
board.processor.cores3.core.commitStats0.committedInstType::SimdUnitStrideLoad            0      0.00%    100.00% # Class of committed instruction. (Count)
board.processor.cores3.core.commitStats0.committedInstType::SimdUnitStrideStore            0      0.00%    100.00% # Class of committed instruction. (Count)
board.processor.cores3.core.commitStats0.committedInstType::SimdUnitStrideMaskLoad            0      0.00%    100.00% # Class of committed instruction. (Count)
board.processor.cores3.core.commitStats0.committedInstType::SimdUnitStrideMaskStore            0      0.00%    100.00% # Class of committed instruction. (Count)
board.processor.cores3.core.commitStats0.committedInstType::SimdStridedLoad            0      0.00%    100.00% # Class of committed instruction. (Count)
board.processor.cores3.core.commitStats0.committedInstType::SimdStridedStore            0      0.00%    100.00% # Class of committed instruction. (Count)
board.processor.cores3.core.commitStats0.committedInstType::SimdIndexedLoad            0      0.00%    100.00% # Class of committed instruction. (Count)
board.processor.cores3.core.commitStats0.committedInstType::SimdIndexedStore            0      0.00%    100.00% # Class of committed instruction. (Count)
board.processor.cores3.core.commitStats0.committedInstType::SimdWholeRegisterLoad            0      0.00%    100.00% # Class of committed instruction. (Count)
board.processor.cores3.core.commitStats0.committedInstType::SimdWholeRegisterStore            0      0.00%    100.00% # Class of committed instruction. (Count)
board.processor.cores3.core.commitStats0.committedInstType::SimdUnitStrideFaultOnlyFirstLoad            0      0.00%    100.00% # Class of committed instruction. (Count)
board.processor.cores3.core.commitStats0.committedInstType::SimdUnitStrideSegmentedLoad            0      0.00%    100.00% # Class of committed instruction. (Count)
board.processor.cores3.core.commitStats0.committedInstType::SimdUnitStrideSegmentedStore            0      0.00%    100.00% # Class of committed instruction. (Count)
board.processor.cores3.core.commitStats0.committedInstType::SimdUnitStrideSegmentedFaultOnlyFirstLoad            0      0.00%    100.00% # Class of committed instruction. (Count)
board.processor.cores3.core.commitStats0.committedInstType::SimdStrideSegmentedLoad            0      0.00%    100.00% # Class of committed instruction. (Count)
board.processor.cores3.core.commitStats0.committedInstType::SimdStrideSegmentedStore            0      0.00%    100.00% # Class of committed instruction. (Count)
board.processor.cores3.core.commitStats0.committedInstType::SimdExt            0      0.00%    100.00% # Class of committed instruction. (Count)
board.processor.cores3.core.commitStats0.committedInstType::SimdFloatExt            0      0.00%    100.00% # Class of committed instruction. (Count)
board.processor.cores3.core.commitStats0.committedInstType::SimdConfig            0      0.00%    100.00% # Class of committed instruction. (Count)
board.processor.cores3.core.commitStats0.committedInstType::SimdBf16Add            0      0.00%    100.00% # Class of committed instruction. (Count)
board.processor.cores3.core.commitStats0.committedInstType::SimdBf16Cmp            0      0.00%    100.00% # Class of committed instruction. (Count)
board.processor.cores3.core.commitStats0.committedInstType::SimdBf16Cvt            0      0.00%    100.00% # Class of committed instruction. (Count)
board.processor.cores3.core.commitStats0.committedInstType::SimdBf16DotProd            0      0.00%    100.00% # Class of committed instruction. (Count)
board.processor.cores3.core.commitStats0.committedInstType::SimdBf16MatMultAcc            0      0.00%    100.00% # Class of committed instruction. (Count)
board.processor.cores3.core.commitStats0.committedInstType::SimdBf16Mult            0      0.00%    100.00% # Class of committed instruction. (Count)
board.processor.cores3.core.commitStats0.committedInstType::SimdBf16MultAcc            0      0.00%    100.00% # Class of committed instruction. (Count)
board.processor.cores3.core.commitStats0.committedInstType::Bf16Cvt            0      0.00%    100.00% # Class of committed instruction. (Count)
board.processor.cores3.core.commitStats0.committedInstType::System            0      0.00%    100.00% # Class of committed instruction. (Count)
board.processor.cores3.core.commitStats0.committedInstType::total  11383872116                       # Class of committed instruction. (Count)
board.processor.cores3.core.commitStats0.committedControl::IsControl    667191494                       # Class of control type instructions committed (Count)
board.processor.cores3.core.commitStats0.committedControl::IsDirectControl    667186725                       # Class of control type instructions committed (Count)
board.processor.cores3.core.commitStats0.committedControl::IsIndirectControl         4769                       # Class of control type instructions committed (Count)
board.processor.cores3.core.commitStats0.committedControl::IsCondControl    667180781                       # Class of control type instructions committed (Count)
board.processor.cores3.core.commitStats0.committedControl::IsUncondControl        10713                       # Class of control type instructions committed (Count)
board.processor.cores3.core.commitStats0.committedControl::IsCall         2509                       # Class of control type instructions committed (Count)
board.processor.cores3.core.commitStats0.committedControl::IsReturn         2504                       # Class of control type instructions committed (Count)
board.processor.cores3.core.commitStats0.functionCalls         2509                       # Number of function calls committed (Count)
board.processor.cores3.core.commitStats0.numCallsReturns         5013                       # Number of function calls and returns committed (Count)
board.processor.cores3.core.exec_context.thread_0.numMatAluAccesses            0                       # Number of matrix alu accesses (Count)
board.processor.cores3.core.exec_context.thread_0.numMatInsts            0                       # Number of matrix instructions (Count)
board.processor.cores3.core.exec_context.thread_0.numIdleCycles  4052.001672                       # Number of idle cycles (Cycle)
board.processor.cores3.core.exec_context.thread_0.numBusyCycles 12337654278.998327                       # Number of busy cycles (Cycle)
board.processor.cores3.core.exec_context.thread_0.notIdleFraction     1.000000                       # Percentage of non-idle cycles (Ratio)
board.processor.cores3.core.exec_context.thread_0.idleFraction     0.000000                       # Percentage of idle cycles (Ratio)
board.processor.cores3.core.executeStats0.numInsts   5363889033                       # Number of executed instructions (Count)
board.processor.cores3.core.executeStats0.numNop            0                       # Number of nop insts executed (Count)
board.processor.cores3.core.executeStats0.numBranches    667191494                       # Number of branches executed (Count)
board.processor.cores3.core.executeStats0.numLoadInsts   2646515337                       # Number of load instructions executed (Count)
board.processor.cores3.core.executeStats0.numStoreInsts   1324731555                       # Number of stores executed (Count)
board.processor.cores3.core.executeStats0.instRate     0.434757                       # Inst execution rate ((Count/Cycle))
board.processor.cores3.core.executeStats0.numCCRegReads   3359928746                       # Number of times the CC registers were read (Count)
board.processor.cores3.core.executeStats0.numCCRegWrites   2673530588                       # Number of times the CC registers were written (Count)
board.processor.cores3.core.executeStats0.numFpAluAccesses   6709851130                       # Number of float alu accesses (Count)
board.processor.cores3.core.executeStats0.numFpRegReads   9489281953                       # Number of times the floating registers were read (Count)
board.processor.cores3.core.executeStats0.numFpRegWrites   5385130470                       # Number of times the floating registers were written (Count)
board.processor.cores3.core.executeStats0.numIntAluAccesses   8645233845                       # Number of integer alu accesses (Count)
board.processor.cores3.core.executeStats0.numIntRegReads  11957279295                       # Number of times the integer registers were read (Count)
board.processor.cores3.core.executeStats0.numIntRegWrites   3338431611                       # Number of times the integer registers were written (Count)
board.processor.cores3.core.executeStats0.numMemRefs   3971246892                       # Number of memory refs (Count)
board.processor.cores3.core.executeStats0.numMiscRegReads   5305643075                       # Number of times the Misc registers were read (Count)
board.processor.cores3.core.executeStats0.numVecAluAccesses            0                       # Number of vector alu accesses (Count)
board.processor.cores3.core.executeStats0.numDiscardedOps            0                       # Number of ops (including micro ops) which were discarded before commit (Count)
board.processor.cores3.core.fetchStats0.numInsts   5363889065                       # Number of instructions fetched (thread level) (Count)
board.processor.cores3.core.fetchStats0.numOps  11383887414                       # Number of ops (including micro ops) fetched (thread level) (Count)
board.processor.cores3.core.fetchStats0.fetchRate     0.434757                       # Number of inst fetches per cycle ((Count/Cycle))
board.processor.cores3.core.fetchStats0.numBranches    667191494                       # Number of branches fetched (Count)
board.processor.cores3.core.fetchStats0.branchRate     0.054078                       # Number of branch fetches per cycle (Ratio)
board.processor.cores3.core.fetchStats0.numFetchSuspends            0                       # Number of times Execute suspended instruction fetching (Count)
board.processor.cores3.core.interrupts.clk_domain.clock         5328                       # Clock period in ticks (Tick)
board.processor.cores3.core.mmu.dtb.rdAccesses   2646523535                       # TLB accesses on read requests (Count)
board.processor.cores3.core.mmu.dtb.wrAccesses   1324738635                       # TLB accesses on write requests (Count)
board.processor.cores3.core.mmu.dtb.exAccesses            0                       # TLB accesses on execute (instr) requests (Count)
board.processor.cores3.core.mmu.dtb.rdMisses      2599961                       # TLB misses on read requests (Count)
board.processor.cores3.core.mmu.dtb.wrMisses        14176                       # TLB misses on write requests (Count)
board.processor.cores3.core.mmu.dtb.exMisses            0                       # TLB misses on execute (instr) requests (Count)
board.processor.cores3.core.mmu.dtb.walker.power_state.pwrStateResidencyTicks::UNDEFINED 4108441573539                       # Cumulative time (in ticks) in various power states (Tick)
board.processor.cores3.core.mmu.itb.rdAccesses            0                       # TLB accesses on read requests (Count)
board.processor.cores3.core.mmu.itb.wrAccesses            0                       # TLB accesses on write requests (Count)
board.processor.cores3.core.mmu.itb.exAccesses   7376552978                       # TLB accesses on execute (instr) requests (Count)
board.processor.cores3.core.mmu.itb.rdMisses            0                       # TLB misses on read requests (Count)
board.processor.cores3.core.mmu.itb.wrMisses            0                       # TLB misses on write requests (Count)
board.processor.cores3.core.mmu.itb.exMisses          125                       # TLB misses on execute (instr) requests (Count)
board.processor.cores3.core.mmu.itb.walker.power_state.pwrStateResidencyTicks::UNDEFINED 4108441573539                       # Cumulative time (in ticks) in various power states (Tick)
board.processor.cores3.core.power_state.pwrStateResidencyTicks::ON 4108441573539                       # Cumulative time (in ticks) in various power states (Tick)
board.processor.cores3.core.thread_0.numInsts   5363889033                       # Number of Instructions committed (Count)
board.processor.cores3.core.thread_0.numOps  11383872116                       # Number of Ops committed (Count)
board.processor.cores3.core.thread_0.numMemRefs   3971246892                       # Number of Memory References (Count)
board.processor.cores3.core.workload.numSyscalls           26                       # Number of system calls (Count)
board.workload.inst.arm                             0                       # number of arm instructions executed (Count)
board.workload.inst.quiesce                         0                       # number of quiesce instructions executed (Count)

---------- End Simulation Statistics   ----------
