
---------- Begin Simulation Statistics ----------
simSeconds                                   0.000463                       # Number of seconds simulated (Second)
simTicks                                    463306230                       # Number of ticks simulated (Tick)
finalTick                                   463306230                       # Number of ticks from beginning of simulation (restored from checkpoints and never reset) (Tick)
simFreq                                  1000000000000                       # The number of ticks per simulated second ((Tick/Second))
hostSeconds                                      0.05                       # Real time elapsed on the host (Second)
hostTickRate                              10016349151                       # The number of ticks simulated per host second (ticks/s) ((Tick/Second))
hostMemory                                    1182804                       # Number of bytes of host memory used (Byte)
simInsts                                         6598                       # Number of instructions simulated (Count)
simOps                                          13084                       # Number of ops (including micro ops) simulated (Count)
hostInstRate                                   142395                       # Simulator instruction rate (inst/s) ((Count/Second))
hostOpRate                                     282348                       # Simulator op (including micro ops) rate (op/s) ((Count/Second))
board.cache_hierarchy.membus.transDist::ReadReq         9903                       # Transaction distribution (Count)
board.cache_hierarchy.membus.transDist::ReadResp         9903                       # Transaction distribution (Count)
board.cache_hierarchy.membus.transDist::WriteReq         1359                       # Transaction distribution (Count)
board.cache_hierarchy.membus.transDist::WriteResp         1359                       # Transaction distribution (Count)
board.cache_hierarchy.membus.pktCount_board.processor.cores.core.icache_port::board.memory.mem_ctrl.port        17238                       # Packet count per connected requestor and responder (Count)
board.cache_hierarchy.membus.pktCount_board.processor.cores.core.icache_port::total        17238                       # Packet count per connected requestor and responder (Count)
board.cache_hierarchy.membus.pktCount_board.processor.cores.core.dcache_port::board.memory.mem_ctrl.port         5286                       # Packet count per connected requestor and responder (Count)
board.cache_hierarchy.membus.pktCount_board.processor.cores.core.dcache_port::total         5286                       # Packet count per connected requestor and responder (Count)
board.cache_hierarchy.membus.pktCount::total        22524                       # Packet count per connected requestor and responder (Count)
board.cache_hierarchy.membus.pktSize_board.processor.cores.core.icache_port::board.memory.mem_ctrl.port        68952                       # Cumulative packet size per connected requestor and responder (Byte)
board.cache_hierarchy.membus.pktSize_board.processor.cores.core.icache_port::total        68952                       # Cumulative packet size per connected requestor and responder (Byte)
board.cache_hierarchy.membus.pktSize_board.processor.cores.core.dcache_port::board.memory.mem_ctrl.port        18670                       # Cumulative packet size per connected requestor and responder (Byte)
board.cache_hierarchy.membus.pktSize_board.processor.cores.core.dcache_port::total        18670                       # Cumulative packet size per connected requestor and responder (Byte)
board.cache_hierarchy.membus.pktSize::total        87622                       # Cumulative packet size per connected requestor and responder (Byte)
board.cache_hierarchy.membus.snoops                 0                       # Total snoops (Count)
board.cache_hierarchy.membus.snoopTraffic            0                       # Total snoop traffic (Byte)
board.cache_hierarchy.membus.snoopFanout::samples        11262                       # Request fanout histogram (Count)
board.cache_hierarchy.membus.snoopFanout::mean            0                       # Request fanout histogram (Count)
board.cache_hierarchy.membus.snoopFanout::stdev            0                       # Request fanout histogram (Count)
board.cache_hierarchy.membus.snoopFanout::underflows            0      0.00%      0.00% # Request fanout histogram (Count)
board.cache_hierarchy.membus.snoopFanout::0        11262    100.00%    100.00% # Request fanout histogram (Count)
board.cache_hierarchy.membus.snoopFanout::1            0      0.00%    100.00% # Request fanout histogram (Count)
board.cache_hierarchy.membus.snoopFanout::overflows            0      0.00%    100.00% # Request fanout histogram (Count)
board.cache_hierarchy.membus.snoopFanout::min_value            0                       # Request fanout histogram (Count)
board.cache_hierarchy.membus.snoopFanout::max_value            0                       # Request fanout histogram (Count)
board.cache_hierarchy.membus.snoopFanout::total        11262                       # Request fanout histogram (Count)
board.cache_hierarchy.membus.badaddr_responder.power_state.pwrStateResidencyTicks::UNDEFINED    463306230                       # Cumulative time (in ticks) in various power states (Tick)
board.cache_hierarchy.membus.power_state.pwrStateResidencyTicks::UNDEFINED    463306230                       # Cumulative time (in ticks) in various power states (Tick)
board.cache_hierarchy.membus.reqLayer2.occupancy      4202793                       # Layer occupancy (ticks) (Tick)
board.cache_hierarchy.membus.reqLayer2.utilization          0.0                       # Layer utilization (Ratio)
board.cache_hierarchy.membus.respLayer0.occupancy      7489335                       # Layer occupancy (ticks) (Tick)
board.cache_hierarchy.membus.respLayer0.utilization          0.0                       # Layer utilization (Ratio)
board.cache_hierarchy.membus.respLayer1.occupancy      2004334                       # Layer occupancy (ticks) (Tick)
board.cache_hierarchy.membus.respLayer1.utilization          0.0                       # Layer utilization (Ratio)
board.cache_hierarchy.membus.snoop_filter.totRequests            0                       # Total number of requests made to the snoop filter. (Count)
board.cache_hierarchy.membus.snoop_filter.hitSingleRequests            0                       # Number of requests hitting in the snoop filter with a single holder of the requested data. (Count)
board.cache_hierarchy.membus.snoop_filter.hitMultiRequests            0                       # Number of requests hitting in the snoop filter with multiple (>1) holders of the requested data. (Count)
board.cache_hierarchy.membus.snoop_filter.totSnoops            0                       # Total number of snoops made to the snoop filter. (Count)
board.cache_hierarchy.membus.snoop_filter.hitSingleSnoops            0                       # Number of snoops hitting in the snoop filter with a single holder of the requested data. (Count)
board.cache_hierarchy.membus.snoop_filter.hitMultiSnoops            0                       # Number of snoops hitting in the snoop filter with multiple (>1) holders of the requested data. (Count)
board.clk_domain.clock                            333                       # Clock period in ticks (Tick)
board.clk_domain.voltage_domain.voltage             1                       # Voltage in Volts (Volt)
board.memory.mem_ctrl.avgPriority_processor.cores.core.inst::samples      8619.00                       # Average QoS priority value for accepted requests (Count)
board.memory.mem_ctrl.avgPriority_processor.cores.core.data::samples      1306.00                       # Average QoS priority value for accepted requests (Count)
board.memory.mem_ctrl.priorityMinLatency 0.000000018750                       # per QoS priority minimum request to response latency (Second)
board.memory.mem_ctrl.priorityMaxLatency 0.000343301050                       # per QoS priority maximum request to response latency (Second)
board.memory.mem_ctrl.numReadWriteTurnArounds           11                       # Number of turnarounds from READ to WRITE (Count)
board.memory.mem_ctrl.numWriteReadTurnArounds           11                       # Number of turnarounds from WRITE to READ (Count)
board.memory.mem_ctrl.numStayReadState          20927                       # Number of times bus staying in READ state (Count)
board.memory.mem_ctrl.numStayWriteState           165                       # Number of times bus staying in WRITE state (Count)
board.memory.mem_ctrl.readReqs                   9903                       # Number of read requests accepted (Count)
board.memory.mem_ctrl.writeReqs                  1359                       # Number of write requests accepted (Count)
board.memory.mem_ctrl.readBursts                 9903                       # Number of controller read bursts, including those serviced by the write queue (Count)
board.memory.mem_ctrl.writeBursts                1359                       # Number of controller write bursts, including those merged in the write queue (Count)
board.memory.mem_ctrl.servicedByWrQ               172                       # Number of controller read bursts serviced by the write queue (Count)
board.memory.mem_ctrl.mergedWrBursts             1165                       # Number of controller write bursts merged with an existing one (Count)
board.memory.mem_ctrl.neitherReadNorWriteReqs            0                       # Number of requests that are neither read nor write (Count)
board.memory.mem_ctrl.avgRdQLen                  1.00                       # Average read queue length when enqueuing ((Count/Tick))
board.memory.mem_ctrl.avgWrQLen                 24.29                       # Average write queue length when enqueuing ((Count/Tick))
board.memory.mem_ctrl.numRdRetry                    0                       # Number of times read queue was full causing retry (Count)
board.memory.mem_ctrl.numWrRetry                    0                       # Number of times write queue was full causing retry (Count)
board.memory.mem_ctrl.readPktSize::0               94                       # Read request sizes (log2) (Count)
board.memory.mem_ctrl.readPktSize::1               14                       # Read request sizes (log2) (Count)
board.memory.mem_ctrl.readPktSize::2              226                       # Read request sizes (log2) (Count)
board.memory.mem_ctrl.readPktSize::3             9569                       # Read request sizes (log2) (Count)
board.memory.mem_ctrl.readPktSize::4                0                       # Read request sizes (log2) (Count)
board.memory.mem_ctrl.readPktSize::5                0                       # Read request sizes (log2) (Count)
board.memory.mem_ctrl.readPktSize::6                0                       # Read request sizes (log2) (Count)
board.memory.mem_ctrl.writePktSize::0              34                       # Write request sizes (log2) (Count)
board.memory.mem_ctrl.writePktSize::1               6                       # Write request sizes (log2) (Count)
board.memory.mem_ctrl.writePktSize::2             137                       # Write request sizes (log2) (Count)
board.memory.mem_ctrl.writePktSize::3            1182                       # Write request sizes (log2) (Count)
board.memory.mem_ctrl.writePktSize::4               0                       # Write request sizes (log2) (Count)
board.memory.mem_ctrl.writePktSize::5               0                       # Write request sizes (log2) (Count)
board.memory.mem_ctrl.writePktSize::6               0                       # Write request sizes (log2) (Count)
board.memory.mem_ctrl.rdQLenPdf::0               9725                       # What read queue length does an incoming req see (Count)
board.memory.mem_ctrl.rdQLenPdf::1                  6                       # What read queue length does an incoming req see (Count)
board.memory.mem_ctrl.rdQLenPdf::2                  0                       # What read queue length does an incoming req see (Count)
board.memory.mem_ctrl.rdQLenPdf::3                  0                       # What read queue length does an incoming req see (Count)
board.memory.mem_ctrl.rdQLenPdf::4                  0                       # What read queue length does an incoming req see (Count)
board.memory.mem_ctrl.rdQLenPdf::5                  0                       # What read queue length does an incoming req see (Count)
board.memory.mem_ctrl.rdQLenPdf::6                  0                       # What read queue length does an incoming req see (Count)
board.memory.mem_ctrl.rdQLenPdf::7                  0                       # What read queue length does an incoming req see (Count)
board.memory.mem_ctrl.rdQLenPdf::8                  0                       # What read queue length does an incoming req see (Count)
board.memory.mem_ctrl.rdQLenPdf::9                  0                       # What read queue length does an incoming req see (Count)
board.memory.mem_ctrl.rdQLenPdf::10                 0                       # What read queue length does an incoming req see (Count)
board.memory.mem_ctrl.rdQLenPdf::11                 0                       # What read queue length does an incoming req see (Count)
board.memory.mem_ctrl.rdQLenPdf::12                 0                       # What read queue length does an incoming req see (Count)
board.memory.mem_ctrl.rdQLenPdf::13                 0                       # What read queue length does an incoming req see (Count)
board.memory.mem_ctrl.rdQLenPdf::14                 0                       # What read queue length does an incoming req see (Count)
board.memory.mem_ctrl.rdQLenPdf::15                 0                       # What read queue length does an incoming req see (Count)
board.memory.mem_ctrl.rdQLenPdf::16                 0                       # What read queue length does an incoming req see (Count)
board.memory.mem_ctrl.rdQLenPdf::17                 0                       # What read queue length does an incoming req see (Count)
board.memory.mem_ctrl.rdQLenPdf::18                 0                       # What read queue length does an incoming req see (Count)
board.memory.mem_ctrl.rdQLenPdf::19                 0                       # What read queue length does an incoming req see (Count)
board.memory.mem_ctrl.rdQLenPdf::20                 0                       # What read queue length does an incoming req see (Count)
board.memory.mem_ctrl.rdQLenPdf::21                 0                       # What read queue length does an incoming req see (Count)
board.memory.mem_ctrl.rdQLenPdf::22                 0                       # What read queue length does an incoming req see (Count)
board.memory.mem_ctrl.rdQLenPdf::23                 0                       # What read queue length does an incoming req see (Count)
board.memory.mem_ctrl.rdQLenPdf::24                 0                       # What read queue length does an incoming req see (Count)
board.memory.mem_ctrl.rdQLenPdf::25                 0                       # What read queue length does an incoming req see (Count)
board.memory.mem_ctrl.rdQLenPdf::26                 0                       # What read queue length does an incoming req see (Count)
board.memory.mem_ctrl.rdQLenPdf::27                 0                       # What read queue length does an incoming req see (Count)
board.memory.mem_ctrl.rdQLenPdf::28                 0                       # What read queue length does an incoming req see (Count)
board.memory.mem_ctrl.rdQLenPdf::29                 0                       # What read queue length does an incoming req see (Count)
board.memory.mem_ctrl.rdQLenPdf::30                 0                       # What read queue length does an incoming req see (Count)
board.memory.mem_ctrl.rdQLenPdf::31                 0                       # What read queue length does an incoming req see (Count)
board.memory.mem_ctrl.wrQLenPdf::0                  1                       # What write queue length does an incoming req see (Count)
board.memory.mem_ctrl.wrQLenPdf::1                  1                       # What write queue length does an incoming req see (Count)
board.memory.mem_ctrl.wrQLenPdf::2                  1                       # What write queue length does an incoming req see (Count)
board.memory.mem_ctrl.wrQLenPdf::3                  1                       # What write queue length does an incoming req see (Count)
board.memory.mem_ctrl.wrQLenPdf::4                  1                       # What write queue length does an incoming req see (Count)
board.memory.mem_ctrl.wrQLenPdf::5                  1                       # What write queue length does an incoming req see (Count)
board.memory.mem_ctrl.wrQLenPdf::6                  1                       # What write queue length does an incoming req see (Count)
board.memory.mem_ctrl.wrQLenPdf::7                  1                       # What write queue length does an incoming req see (Count)
board.memory.mem_ctrl.wrQLenPdf::8                  1                       # What write queue length does an incoming req see (Count)
board.memory.mem_ctrl.wrQLenPdf::9                  1                       # What write queue length does an incoming req see (Count)
board.memory.mem_ctrl.wrQLenPdf::10                 1                       # What write queue length does an incoming req see (Count)
board.memory.mem_ctrl.wrQLenPdf::11                 1                       # What write queue length does an incoming req see (Count)
board.memory.mem_ctrl.wrQLenPdf::12                 1                       # What write queue length does an incoming req see (Count)
board.memory.mem_ctrl.wrQLenPdf::13                 1                       # What write queue length does an incoming req see (Count)
board.memory.mem_ctrl.wrQLenPdf::14                 1                       # What write queue length does an incoming req see (Count)
board.memory.mem_ctrl.wrQLenPdf::15                 1                       # What write queue length does an incoming req see (Count)
board.memory.mem_ctrl.wrQLenPdf::16                 1                       # What write queue length does an incoming req see (Count)
board.memory.mem_ctrl.wrQLenPdf::17                12                       # What write queue length does an incoming req see (Count)
board.memory.mem_ctrl.wrQLenPdf::18                11                       # What write queue length does an incoming req see (Count)
board.memory.mem_ctrl.wrQLenPdf::19                11                       # What write queue length does an incoming req see (Count)
board.memory.mem_ctrl.wrQLenPdf::20                11                       # What write queue length does an incoming req see (Count)
board.memory.mem_ctrl.wrQLenPdf::21                11                       # What write queue length does an incoming req see (Count)
board.memory.mem_ctrl.wrQLenPdf::22                11                       # What write queue length does an incoming req see (Count)
board.memory.mem_ctrl.wrQLenPdf::23                11                       # What write queue length does an incoming req see (Count)
board.memory.mem_ctrl.wrQLenPdf::24                11                       # What write queue length does an incoming req see (Count)
board.memory.mem_ctrl.wrQLenPdf::25                11                       # What write queue length does an incoming req see (Count)
board.memory.mem_ctrl.wrQLenPdf::26                11                       # What write queue length does an incoming req see (Count)
board.memory.mem_ctrl.wrQLenPdf::27                11                       # What write queue length does an incoming req see (Count)
board.memory.mem_ctrl.wrQLenPdf::28                11                       # What write queue length does an incoming req see (Count)
board.memory.mem_ctrl.wrQLenPdf::29                11                       # What write queue length does an incoming req see (Count)
board.memory.mem_ctrl.wrQLenPdf::30                11                       # What write queue length does an incoming req see (Count)
board.memory.mem_ctrl.wrQLenPdf::31                11                       # What write queue length does an incoming req see (Count)
board.memory.mem_ctrl.wrQLenPdf::32                11                       # What write queue length does an incoming req see (Count)
board.memory.mem_ctrl.wrQLenPdf::33                 0                       # What write queue length does an incoming req see (Count)
board.memory.mem_ctrl.wrQLenPdf::34                 0                       # What write queue length does an incoming req see (Count)
board.memory.mem_ctrl.wrQLenPdf::35                 0                       # What write queue length does an incoming req see (Count)
board.memory.mem_ctrl.wrQLenPdf::36                 0                       # What write queue length does an incoming req see (Count)
board.memory.mem_ctrl.wrQLenPdf::37                 0                       # What write queue length does an incoming req see (Count)
board.memory.mem_ctrl.wrQLenPdf::38                 0                       # What write queue length does an incoming req see (Count)
board.memory.mem_ctrl.wrQLenPdf::39                 0                       # What write queue length does an incoming req see (Count)
board.memory.mem_ctrl.wrQLenPdf::40                 0                       # What write queue length does an incoming req see (Count)
board.memory.mem_ctrl.wrQLenPdf::41                 0                       # What write queue length does an incoming req see (Count)
board.memory.mem_ctrl.wrQLenPdf::42                 0                       # What write queue length does an incoming req see (Count)
board.memory.mem_ctrl.wrQLenPdf::43                 0                       # What write queue length does an incoming req see (Count)
board.memory.mem_ctrl.wrQLenPdf::44                 0                       # What write queue length does an incoming req see (Count)
board.memory.mem_ctrl.wrQLenPdf::45                 0                       # What write queue length does an incoming req see (Count)
board.memory.mem_ctrl.wrQLenPdf::46                 0                       # What write queue length does an incoming req see (Count)
board.memory.mem_ctrl.wrQLenPdf::47                 0                       # What write queue length does an incoming req see (Count)
board.memory.mem_ctrl.wrQLenPdf::48                 0                       # What write queue length does an incoming req see (Count)
board.memory.mem_ctrl.wrQLenPdf::49                 0                       # What write queue length does an incoming req see (Count)
board.memory.mem_ctrl.wrQLenPdf::50                 0                       # What write queue length does an incoming req see (Count)
board.memory.mem_ctrl.wrQLenPdf::51                 0                       # What write queue length does an incoming req see (Count)
board.memory.mem_ctrl.wrQLenPdf::52                 0                       # What write queue length does an incoming req see (Count)
board.memory.mem_ctrl.wrQLenPdf::53                 0                       # What write queue length does an incoming req see (Count)
board.memory.mem_ctrl.wrQLenPdf::54                 0                       # What write queue length does an incoming req see (Count)
board.memory.mem_ctrl.wrQLenPdf::55                 0                       # What write queue length does an incoming req see (Count)
board.memory.mem_ctrl.wrQLenPdf::56                 0                       # What write queue length does an incoming req see (Count)
board.memory.mem_ctrl.wrQLenPdf::57                 0                       # What write queue length does an incoming req see (Count)
board.memory.mem_ctrl.wrQLenPdf::58                 0                       # What write queue length does an incoming req see (Count)
board.memory.mem_ctrl.wrQLenPdf::59                 0                       # What write queue length does an incoming req see (Count)
board.memory.mem_ctrl.wrQLenPdf::60                 0                       # What write queue length does an incoming req see (Count)
board.memory.mem_ctrl.wrQLenPdf::61                 0                       # What write queue length does an incoming req see (Count)
board.memory.mem_ctrl.wrQLenPdf::62                 0                       # What write queue length does an incoming req see (Count)
board.memory.mem_ctrl.wrQLenPdf::63                 0                       # What write queue length does an incoming req see (Count)
board.memory.mem_ctrl.rdPerTurnAround::samples           11                       # Reads before turning the bus around for writes (Count)
board.memory.mem_ctrl.rdPerTurnAround::mean   881.181818                       # Reads before turning the bus around for writes (Count)
board.memory.mem_ctrl.rdPerTurnAround::gmean   696.817709                       # Reads before turning the bus around for writes (Count)
board.memory.mem_ctrl.rdPerTurnAround::stdev   635.153968                       # Reads before turning the bus around for writes (Count)
board.memory.mem_ctrl.rdPerTurnAround::128-255            1      9.09%      9.09% # Reads before turning the bus around for writes (Count)
board.memory.mem_ctrl.rdPerTurnAround::256-383            1      9.09%     18.18% # Reads before turning the bus around for writes (Count)
board.memory.mem_ctrl.rdPerTurnAround::384-511            2     18.18%     36.36% # Reads before turning the bus around for writes (Count)
board.memory.mem_ctrl.rdPerTurnAround::512-639            2     18.18%     54.55% # Reads before turning the bus around for writes (Count)
board.memory.mem_ctrl.rdPerTurnAround::768-895            1      9.09%     63.64% # Reads before turning the bus around for writes (Count)
board.memory.mem_ctrl.rdPerTurnAround::1024-1151            1      9.09%     72.73% # Reads before turning the bus around for writes (Count)
board.memory.mem_ctrl.rdPerTurnAround::1152-1279            1      9.09%     81.82% # Reads before turning the bus around for writes (Count)
board.memory.mem_ctrl.rdPerTurnAround::1664-1791            1      9.09%     90.91% # Reads before turning the bus around for writes (Count)
board.memory.mem_ctrl.rdPerTurnAround::2176-2303            1      9.09%    100.00% # Reads before turning the bus around for writes (Count)
board.memory.mem_ctrl.rdPerTurnAround::total           11                       # Reads before turning the bus around for writes (Count)
board.memory.mem_ctrl.wrPerTurnAround::samples           11                       # Writes before turning the bus around for reads (Count)
board.memory.mem_ctrl.wrPerTurnAround::mean           16                       # Writes before turning the bus around for reads (Count)
board.memory.mem_ctrl.wrPerTurnAround::gmean    16.000000                       # Writes before turning the bus around for reads (Count)
board.memory.mem_ctrl.wrPerTurnAround::16           11    100.00%    100.00% # Writes before turning the bus around for reads (Count)
board.memory.mem_ctrl.wrPerTurnAround::total           11                       # Writes before turning the bus around for reads (Count)
board.memory.mem_ctrl.bytesReadWrQ              11008                       # Total number of bytes read from write queue (Byte)
board.memory.mem_ctrl.bytesReadSys              77572                       # Total read bytes from the system interface side (Byte)
board.memory.mem_ctrl.bytesWrittenSys           10050                       # Total written bytes from the system interface side (Byte)
board.memory.mem_ctrl.avgRdBWSys         167431376.86708856                       # Average system read bandwidth in Byte/s ((Byte/Second))
board.memory.mem_ctrl.avgWrBWSys         21691916.38109421                       # Average system write bandwidth in Byte/s ((Byte/Second))
board.memory.mem_ctrl.totGap                463194342                       # Total gap between requests (Tick)
board.memory.mem_ctrl.avgGap                 41128.96                       # Average gap between requests ((Tick/Count))
board.memory.mem_ctrl.requestorReadBytes::processor.cores.core.inst        68952                       # Per-requestor bytes read from memory (Byte)
board.memory.mem_ctrl.requestorReadBytes::processor.cores.core.data         7510                       # Per-requestor bytes read from memory (Byte)
board.memory.mem_ctrl.requestorWriteBytes::processor.cores.core.data         1298                       # Per-requestor bytes write to memory (Byte)
board.memory.mem_ctrl.requestorReadRate::processor.cores.core.inst 148825971.971065461636                       # Per-requestor bytes read from memory rate ((Byte/Second))
board.memory.mem_ctrl.requestorReadRate::processor.cores.core.data 16209581.295723134652                       # Per-requestor bytes read from memory rate ((Byte/Second))
board.memory.mem_ctrl.requestorWriteRate::processor.cores.core.data 2801602.732603013050                       # Per-requestor bytes write to memory rate ((Byte/Second))
board.memory.mem_ctrl.requestorReadAccesses::processor.cores.core.inst         8619                       # Per-requestor read serviced memory accesses (Count)
board.memory.mem_ctrl.requestorReadAccesses::processor.cores.core.data         1284                       # Per-requestor read serviced memory accesses (Count)
board.memory.mem_ctrl.requestorWriteAccesses::processor.cores.core.data         1359                       # Per-requestor write serviced memory accesses (Count)
board.memory.mem_ctrl.requestorReadTotalLat::processor.cores.core.inst    186452643                       # Per-requestor read total memory access latency (Tick)
board.memory.mem_ctrl.requestorReadTotalLat::processor.cores.core.data     26801910                       # Per-requestor read total memory access latency (Tick)
board.memory.mem_ctrl.requestorWriteTotalLat::processor.cores.core.data   8905443586                       # Per-requestor write total memory access latency (Tick)
board.memory.mem_ctrl.requestorReadAvgLat::processor.cores.core.inst     21632.75                       # Per-requestor read average memory access latency ((Tick/Count))
board.memory.mem_ctrl.requestorReadAvgLat::processor.cores.core.data     20873.76                       # Per-requestor read average memory access latency ((Tick/Count))
board.memory.mem_ctrl.requestorWriteAvgLat::processor.cores.core.data   6552938.62                       # Per-requestor write average memory access latency ((Tick/Count))
board.memory.mem_ctrl.dram.bytesRead::processor.cores.core.inst        68952                       # Number of bytes read from this memory (Byte)
board.memory.mem_ctrl.dram.bytesRead::processor.cores.core.data         8620                       # Number of bytes read from this memory (Byte)
board.memory.mem_ctrl.dram.bytesRead::total        77572                       # Number of bytes read from this memory (Byte)
board.memory.mem_ctrl.dram.bytesInstRead::processor.cores.core.inst        68952                       # Number of instructions bytes read from this memory (Byte)
board.memory.mem_ctrl.dram.bytesInstRead::total        68952                       # Number of instructions bytes read from this memory (Byte)
board.memory.mem_ctrl.dram.bytesWritten::processor.cores.core.data        10050                       # Number of bytes written to this memory (Byte)
board.memory.mem_ctrl.dram.bytesWritten::total        10050                       # Number of bytes written to this memory (Byte)
board.memory.mem_ctrl.dram.numReads::processor.cores.core.inst         8619                       # Number of read requests responded to by this memory (Count)
board.memory.mem_ctrl.dram.numReads::processor.cores.core.data         1284                       # Number of read requests responded to by this memory (Count)
board.memory.mem_ctrl.dram.numReads::total         9903                       # Number of read requests responded to by this memory (Count)
board.memory.mem_ctrl.dram.numWrites::processor.cores.core.data         1359                       # Number of write requests responded to by this memory (Count)
board.memory.mem_ctrl.dram.numWrites::total         1359                       # Number of write requests responded to by this memory (Count)
board.memory.mem_ctrl.dram.bwRead::processor.cores.core.inst    148825972                       # Total read bandwidth from this memory ((Byte/Second))
board.memory.mem_ctrl.dram.bwRead::processor.cores.core.data     18605405                       # Total read bandwidth from this memory ((Byte/Second))
board.memory.mem_ctrl.dram.bwRead::total    167431377                       # Total read bandwidth from this memory ((Byte/Second))
board.memory.mem_ctrl.dram.bwInstRead::processor.cores.core.inst    148825972                       # Instruction read bandwidth from this memory ((Byte/Second))
board.memory.mem_ctrl.dram.bwInstRead::total    148825972                       # Instruction read bandwidth from this memory ((Byte/Second))
board.memory.mem_ctrl.dram.bwWrite::processor.cores.core.data     21691916                       # Write bandwidth from this memory ((Byte/Second))
board.memory.mem_ctrl.dram.bwWrite::total     21691916                       # Write bandwidth from this memory ((Byte/Second))
board.memory.mem_ctrl.dram.bwTotal::processor.cores.core.inst    148825972                       # Total bandwidth to/from this memory ((Byte/Second))
board.memory.mem_ctrl.dram.bwTotal::processor.cores.core.data     40297321                       # Total bandwidth to/from this memory ((Byte/Second))
board.memory.mem_ctrl.dram.bwTotal::total    189123293                       # Total bandwidth to/from this memory ((Byte/Second))
board.memory.mem_ctrl.dram.readBursts            9731                       # Number of DRAM read bursts (Count)
board.memory.mem_ctrl.dram.writeBursts            176                       # Number of DRAM write bursts (Count)
board.memory.mem_ctrl.dram.perBankRdBursts::0         1367                       # Per bank write bursts (Count)
board.memory.mem_ctrl.dram.perBankRdBursts::1            0                       # Per bank write bursts (Count)
board.memory.mem_ctrl.dram.perBankRdBursts::2            0                       # Per bank write bursts (Count)
board.memory.mem_ctrl.dram.perBankRdBursts::3          572                       # Per bank write bursts (Count)
board.memory.mem_ctrl.dram.perBankRdBursts::4          130                       # Per bank write bursts (Count)
board.memory.mem_ctrl.dram.perBankRdBursts::5          197                       # Per bank write bursts (Count)
board.memory.mem_ctrl.dram.perBankRdBursts::6         1404                       # Per bank write bursts (Count)
board.memory.mem_ctrl.dram.perBankRdBursts::7          784                       # Per bank write bursts (Count)
board.memory.mem_ctrl.dram.perBankRdBursts::8         1431                       # Per bank write bursts (Count)
board.memory.mem_ctrl.dram.perBankRdBursts::9          726                       # Per bank write bursts (Count)
board.memory.mem_ctrl.dram.perBankRdBursts::10         1179                       # Per bank write bursts (Count)
board.memory.mem_ctrl.dram.perBankRdBursts::11          809                       # Per bank write bursts (Count)
board.memory.mem_ctrl.dram.perBankRdBursts::12           97                       # Per bank write bursts (Count)
board.memory.mem_ctrl.dram.perBankRdBursts::13          780                       # Per bank write bursts (Count)
board.memory.mem_ctrl.dram.perBankRdBursts::14           14                       # Per bank write bursts (Count)
board.memory.mem_ctrl.dram.perBankRdBursts::15          241                       # Per bank write bursts (Count)
board.memory.mem_ctrl.dram.perBankWrBursts::0            0                       # Per bank write bursts (Count)
board.memory.mem_ctrl.dram.perBankWrBursts::1            0                       # Per bank write bursts (Count)
board.memory.mem_ctrl.dram.perBankWrBursts::2            0                       # Per bank write bursts (Count)
board.memory.mem_ctrl.dram.perBankWrBursts::3            0                       # Per bank write bursts (Count)
board.memory.mem_ctrl.dram.perBankWrBursts::4            0                       # Per bank write bursts (Count)
board.memory.mem_ctrl.dram.perBankWrBursts::5            0                       # Per bank write bursts (Count)
board.memory.mem_ctrl.dram.perBankWrBursts::6            0                       # Per bank write bursts (Count)
board.memory.mem_ctrl.dram.perBankWrBursts::7            0                       # Per bank write bursts (Count)
board.memory.mem_ctrl.dram.perBankWrBursts::8            0                       # Per bank write bursts (Count)
board.memory.mem_ctrl.dram.perBankWrBursts::9           53                       # Per bank write bursts (Count)
board.memory.mem_ctrl.dram.perBankWrBursts::10           29                       # Per bank write bursts (Count)
board.memory.mem_ctrl.dram.perBankWrBursts::11           57                       # Per bank write bursts (Count)
board.memory.mem_ctrl.dram.perBankWrBursts::12            6                       # Per bank write bursts (Count)
board.memory.mem_ctrl.dram.perBankWrBursts::13           31                       # Per bank write bursts (Count)
board.memory.mem_ctrl.dram.perBankWrBursts::14            0                       # Per bank write bursts (Count)
board.memory.mem_ctrl.dram.perBankWrBursts::15            0                       # Per bank write bursts (Count)
board.memory.mem_ctrl.dram.totQLat           30798303                       # Total ticks spent queuing (Tick)
board.memory.mem_ctrl.dram.totBusLat         48655000                       # Total ticks spent in databus transfers (Tick)
board.memory.mem_ctrl.dram.totMemAccLat     213254553                       # Total ticks spent from burst creation until serviced by the DRAM (Tick)
board.memory.mem_ctrl.dram.avgQLat            3164.97                       # Average queueing delay per DRAM burst ((Tick/Count))
board.memory.mem_ctrl.dram.avgBusLat          5000.00                       # Average bus latency per DRAM burst ((Tick/Count))
board.memory.mem_ctrl.dram.avgMemAccLat      21914.97                       # Average memory access latency per DRAM burst ((Tick/Count))
board.memory.mem_ctrl.dram.readRowHits           8820                       # Number of row buffer hits during reads (Count)
board.memory.mem_ctrl.dram.writeRowHits           165                       # Number of row buffer hits during writes (Count)
board.memory.mem_ctrl.dram.readRowHitRate        90.64                       # Row buffer hit rate for reads (Ratio)
board.memory.mem_ctrl.dram.writeRowHitRate        93.75                       # Row buffer hit rate for writes (Ratio)
board.memory.mem_ctrl.dram.bytesPerActivate::samples          917                       # Bytes accessed per row activation (Byte)
board.memory.mem_ctrl.dram.bytesPerActivate::mean   688.854962                       # Bytes accessed per row activation (Byte)
board.memory.mem_ctrl.dram.bytesPerActivate::gmean   503.967142                       # Bytes accessed per row activation (Byte)
board.memory.mem_ctrl.dram.bytesPerActivate::stdev   382.060013                       # Bytes accessed per row activation (Byte)
board.memory.mem_ctrl.dram.bytesPerActivate::0-127          104     11.34%     11.34% # Bytes accessed per row activation (Byte)
board.memory.mem_ctrl.dram.bytesPerActivate::128-255           81      8.83%     20.17% # Bytes accessed per row activation (Byte)
board.memory.mem_ctrl.dram.bytesPerActivate::256-383           76      8.29%     28.46% # Bytes accessed per row activation (Byte)
board.memory.mem_ctrl.dram.bytesPerActivate::384-511           51      5.56%     34.02% # Bytes accessed per row activation (Byte)
board.memory.mem_ctrl.dram.bytesPerActivate::512-639           48      5.23%     39.26% # Bytes accessed per row activation (Byte)
board.memory.mem_ctrl.dram.bytesPerActivate::640-767           50      5.45%     44.71% # Bytes accessed per row activation (Byte)
board.memory.mem_ctrl.dram.bytesPerActivate::768-895           32      3.49%     48.20% # Bytes accessed per row activation (Byte)
board.memory.mem_ctrl.dram.bytesPerActivate::896-1023           26      2.84%     51.04% # Bytes accessed per row activation (Byte)
board.memory.mem_ctrl.dram.bytesPerActivate::1024-1151          449     48.96%    100.00% # Bytes accessed per row activation (Byte)
board.memory.mem_ctrl.dram.bytesPerActivate::total          917                       # Bytes accessed per row activation (Byte)
board.memory.mem_ctrl.dram.dramBytesRead       622784                       # Total bytes read (Byte)
board.memory.mem_ctrl.dram.dramBytesWritten        11264                       # Total bytes written (Byte)
board.memory.mem_ctrl.dram.avgRdBW        1344.216761                       # Average DRAM read bandwidth in MiBytes/s ((Byte/Second))
board.memory.mem_ctrl.dram.avgWrBW          24.312214                       # Average DRAM write bandwidth in MiBytes/s ((Byte/Second))
board.memory.mem_ctrl.dram.peakBW            12800.00                       # Theoretical peak bandwidth in MiByte/s ((Byte/Second))
board.memory.mem_ctrl.dram.busUtil              10.69                       # Data bus utilization in percentage (Ratio)
board.memory.mem_ctrl.dram.busUtilRead          10.50                       # Data bus utilization in percentage for reads (Ratio)
board.memory.mem_ctrl.dram.busUtilWrite          0.19                       # Data bus utilization in percentage for writes (Ratio)
board.memory.mem_ctrl.dram.pageHitRate          90.69                       # Row buffer hit rate, read and write combined (Ratio)
board.memory.mem_ctrl.dram.power_state.pwrStateResidencyTicks::UNDEFINED    463306230                       # Cumulative time (in ticks) in various power states (Tick)
board.memory.mem_ctrl.dram.rank0.actEnergy      2377620                       # Energy for activate commands per rank (pJ) (Joule)
board.memory.mem_ctrl.dram.rank0.preEnergy      1256145                       # Energy for precharge commands per rank (pJ) (Joule)
board.memory.mem_ctrl.dram.rank0.readEnergy     31801560                       # Energy for read commands per rank (pJ) (Joule)
board.memory.mem_ctrl.dram.rank0.writeEnergy            0                       # Energy for write commands per rank (pJ) (Joule)
board.memory.mem_ctrl.dram.rank0.refreshEnergy 36263760.000000                       # Energy for refresh commands per rank (pJ) (Joule)
board.memory.mem_ctrl.dram.rank0.actBackEnergy    139242450                       # Energy for active background per rank (pJ) (Joule)
board.memory.mem_ctrl.dram.rank0.preBackEnergy     60652800                       # Energy for precharge background per rank (pJ) (Joule)
board.memory.mem_ctrl.dram.rank0.actPowerDownEnergy            0                       # Energy for active power-down per rank (pJ) (Joule)
board.memory.mem_ctrl.dram.rank0.prePowerDownEnergy            0                       # Energy for precharge power-down per rank (pJ) (Joule)
board.memory.mem_ctrl.dram.rank0.selfRefreshEnergy            0                       # Energy for self refresh per rank (pJ) (Joule)
board.memory.mem_ctrl.dram.rank0.totalEnergy    271594335                       # Total energy per rank (pJ) (Joule)
board.memory.mem_ctrl.dram.rank0.averagePower   586.209115                       # Core power per rank (mW) (Watt)
board.memory.mem_ctrl.dram.rank0.totalIdleTime            0                       # Total Idle time Per DRAM Rank (Tick)
board.memory.mem_ctrl.dram.rank0.pwrStateTime::IDLE    154632029                       # Time in different power states (Tick)
board.memory.mem_ctrl.dram.rank0.pwrStateTime::REF     15340000                       # Time in different power states (Tick)
board.memory.mem_ctrl.dram.rank0.pwrStateTime::SREF            0                       # Time in different power states (Tick)
board.memory.mem_ctrl.dram.rank0.pwrStateTime::PRE_PDN            0                       # Time in different power states (Tick)
board.memory.mem_ctrl.dram.rank0.pwrStateTime::ACT    293334201                       # Time in different power states (Tick)
board.memory.mem_ctrl.dram.rank0.pwrStateTime::ACT_PDN            0                       # Time in different power states (Tick)
board.memory.mem_ctrl.dram.rank1.actEnergy      4205460                       # Energy for activate commands per rank (pJ) (Joule)
board.memory.mem_ctrl.dram.rank1.preEnergy      2223870                       # Energy for precharge commands per rank (pJ) (Joule)
board.memory.mem_ctrl.dram.rank1.readEnergy     37677780                       # Energy for read commands per rank (pJ) (Joule)
board.memory.mem_ctrl.dram.rank1.writeEnergy       918720                       # Energy for write commands per rank (pJ) (Joule)
board.memory.mem_ctrl.dram.rank1.refreshEnergy 36263760.000000                       # Energy for refresh commands per rank (pJ) (Joule)
board.memory.mem_ctrl.dram.rank1.actBackEnergy    192894840                       # Energy for active background per rank (pJ) (Joule)
board.memory.mem_ctrl.dram.rank1.preBackEnergy     15471840                       # Energy for precharge background per rank (pJ) (Joule)
board.memory.mem_ctrl.dram.rank1.actPowerDownEnergy            0                       # Energy for active power-down per rank (pJ) (Joule)
board.memory.mem_ctrl.dram.rank1.prePowerDownEnergy            0                       # Energy for precharge power-down per rank (pJ) (Joule)
board.memory.mem_ctrl.dram.rank1.selfRefreshEnergy            0                       # Energy for self refresh per rank (pJ) (Joule)
board.memory.mem_ctrl.dram.rank1.totalEnergy    289656270                       # Total energy per rank (pJ) (Joule)
board.memory.mem_ctrl.dram.rank1.averagePower   625.193989                       # Core power per rank (mW) (Watt)
board.memory.mem_ctrl.dram.rank1.totalIdleTime            0                       # Total Idle time Per DRAM Rank (Tick)
board.memory.mem_ctrl.dram.rank1.pwrStateTime::IDLE     38249360                       # Time in different power states (Tick)
board.memory.mem_ctrl.dram.rank1.pwrStateTime::REF     15340000                       # Time in different power states (Tick)
board.memory.mem_ctrl.dram.rank1.pwrStateTime::SREF            0                       # Time in different power states (Tick)
board.memory.mem_ctrl.dram.rank1.pwrStateTime::PRE_PDN            0                       # Time in different power states (Tick)
board.memory.mem_ctrl.dram.rank1.pwrStateTime::ACT    409716870                       # Time in different power states (Tick)
board.memory.mem_ctrl.dram.rank1.pwrStateTime::ACT_PDN            0                       # Time in different power states (Tick)
board.memory.mem_ctrl.power_state.pwrStateResidencyTicks::UNDEFINED    463306230                       # Cumulative time (in ticks) in various power states (Tick)
board.processor.cores.core.numCycles          1391310                       # Number of cpu cycles simulated (Cycle)
board.processor.cores.core.cpi             210.868445                       # CPI: cycles per instruction (core level) ((Cycle/Count))
board.processor.cores.core.ipc               0.004742                       # IPC: instructions per cycle (core level) ((Count/Cycle))
board.processor.cores.core.numWorkItemsStarted            0                       # Number of work items this cpu started (Count)
board.processor.cores.core.numWorkItemsCompleted            0                       # Number of work items this cpu completed (Count)
board.processor.cores.core.issuedInstType_0::No_OpClass           27      0.21%      0.21% # Number of insts issued per FU, per thread (Count)
board.processor.cores.core.issuedInstType_0::IntAlu        10201     77.97%     78.17% # Number of insts issued per FU, per thread (Count)
board.processor.cores.core.issuedInstType_0::IntMult            4      0.03%     78.20% # Number of insts issued per FU, per thread (Count)
board.processor.cores.core.issuedInstType_0::IntDiv           21      0.16%     78.36% # Number of insts issued per FU, per thread (Count)
board.processor.cores.core.issuedInstType_0::FloatAdd            2      0.02%     78.38% # Number of insts issued per FU, per thread (Count)
board.processor.cores.core.issuedInstType_0::FloatCmp            0      0.00%     78.38% # Number of insts issued per FU, per thread (Count)
board.processor.cores.core.issuedInstType_0::FloatCvt            0      0.00%     78.38% # Number of insts issued per FU, per thread (Count)
board.processor.cores.core.issuedInstType_0::FloatMult            0      0.00%     78.38% # Number of insts issued per FU, per thread (Count)
board.processor.cores.core.issuedInstType_0::FloatMultAcc            0      0.00%     78.38% # Number of insts issued per FU, per thread (Count)
board.processor.cores.core.issuedInstType_0::FloatDiv            0      0.00%     78.38% # Number of insts issued per FU, per thread (Count)
board.processor.cores.core.issuedInstType_0::FloatMisc            0      0.00%     78.38% # Number of insts issued per FU, per thread (Count)
board.processor.cores.core.issuedInstType_0::FloatSqrt            0      0.00%     78.38% # Number of insts issued per FU, per thread (Count)
board.processor.cores.core.issuedInstType_0::SimdAdd            0      0.00%     78.38% # Number of insts issued per FU, per thread (Count)
board.processor.cores.core.issuedInstType_0::SimdAddAcc            0      0.00%     78.38% # Number of insts issued per FU, per thread (Count)
board.processor.cores.core.issuedInstType_0::SimdAlu           82      0.63%     79.00% # Number of insts issued per FU, per thread (Count)
board.processor.cores.core.issuedInstType_0::SimdCmp            0      0.00%     79.00% # Number of insts issued per FU, per thread (Count)
board.processor.cores.core.issuedInstType_0::SimdCvt           48      0.37%     79.37% # Number of insts issued per FU, per thread (Count)
board.processor.cores.core.issuedInstType_0::SimdMisc           62      0.47%     79.85% # Number of insts issued per FU, per thread (Count)
board.processor.cores.core.issuedInstType_0::SimdMult            0      0.00%     79.85% # Number of insts issued per FU, per thread (Count)
board.processor.cores.core.issuedInstType_0::SimdMultAcc            0      0.00%     79.85% # Number of insts issued per FU, per thread (Count)
board.processor.cores.core.issuedInstType_0::SimdMatMultAcc            0      0.00%     79.85% # Number of insts issued per FU, per thread (Count)
board.processor.cores.core.issuedInstType_0::SimdShift            0      0.00%     79.85% # Number of insts issued per FU, per thread (Count)
board.processor.cores.core.issuedInstType_0::SimdShiftAcc            0      0.00%     79.85% # Number of insts issued per FU, per thread (Count)
board.processor.cores.core.issuedInstType_0::SimdDiv            0      0.00%     79.85% # Number of insts issued per FU, per thread (Count)
board.processor.cores.core.issuedInstType_0::SimdSqrt            0      0.00%     79.85% # Number of insts issued per FU, per thread (Count)
board.processor.cores.core.issuedInstType_0::SimdFloatAdd            0      0.00%     79.85% # Number of insts issued per FU, per thread (Count)
board.processor.cores.core.issuedInstType_0::SimdFloatAlu            0      0.00%     79.85% # Number of insts issued per FU, per thread (Count)
board.processor.cores.core.issuedInstType_0::SimdFloatCmp            0      0.00%     79.85% # Number of insts issued per FU, per thread (Count)
board.processor.cores.core.issuedInstType_0::SimdFloatCvt            0      0.00%     79.85% # Number of insts issued per FU, per thread (Count)
board.processor.cores.core.issuedInstType_0::SimdFloatDiv            0      0.00%     79.85% # Number of insts issued per FU, per thread (Count)
board.processor.cores.core.issuedInstType_0::SimdFloatMisc            0      0.00%     79.85% # Number of insts issued per FU, per thread (Count)
board.processor.cores.core.issuedInstType_0::SimdFloatMult            0      0.00%     79.85% # Number of insts issued per FU, per thread (Count)
board.processor.cores.core.issuedInstType_0::SimdFloatMultAcc            0      0.00%     79.85% # Number of insts issued per FU, per thread (Count)
board.processor.cores.core.issuedInstType_0::SimdFloatMatMultAcc            0      0.00%     79.85% # Number of insts issued per FU, per thread (Count)
board.processor.cores.core.issuedInstType_0::SimdFloatSqrt            0      0.00%     79.85% # Number of insts issued per FU, per thread (Count)
board.processor.cores.core.issuedInstType_0::SimdReduceAdd            0      0.00%     79.85% # Number of insts issued per FU, per thread (Count)
board.processor.cores.core.issuedInstType_0::SimdReduceAlu            0      0.00%     79.85% # Number of insts issued per FU, per thread (Count)
board.processor.cores.core.issuedInstType_0::SimdReduceCmp            0      0.00%     79.85% # Number of insts issued per FU, per thread (Count)
board.processor.cores.core.issuedInstType_0::SimdFloatReduceAdd            0      0.00%     79.85% # Number of insts issued per FU, per thread (Count)
board.processor.cores.core.issuedInstType_0::SimdFloatReduceCmp            0      0.00%     79.85% # Number of insts issued per FU, per thread (Count)
board.processor.cores.core.issuedInstType_0::SimdAes            0      0.00%     79.85% # Number of insts issued per FU, per thread (Count)
board.processor.cores.core.issuedInstType_0::SimdAesMix            0      0.00%     79.85% # Number of insts issued per FU, per thread (Count)
board.processor.cores.core.issuedInstType_0::SimdSha1Hash            0      0.00%     79.85% # Number of insts issued per FU, per thread (Count)
board.processor.cores.core.issuedInstType_0::SimdSha1Hash2            0      0.00%     79.85% # Number of insts issued per FU, per thread (Count)
board.processor.cores.core.issuedInstType_0::SimdSha256Hash            0      0.00%     79.85% # Number of insts issued per FU, per thread (Count)
board.processor.cores.core.issuedInstType_0::SimdSha256Hash2            0      0.00%     79.85% # Number of insts issued per FU, per thread (Count)
board.processor.cores.core.issuedInstType_0::SimdShaSigma2            0      0.00%     79.85% # Number of insts issued per FU, per thread (Count)
board.processor.cores.core.issuedInstType_0::SimdShaSigma3            0      0.00%     79.85% # Number of insts issued per FU, per thread (Count)
board.processor.cores.core.issuedInstType_0::SimdSha3            0      0.00%     79.85% # Number of insts issued per FU, per thread (Count)
board.processor.cores.core.issuedInstType_0::SimdSm4e            0      0.00%     79.85% # Number of insts issued per FU, per thread (Count)
board.processor.cores.core.issuedInstType_0::SimdCrc            0      0.00%     79.85% # Number of insts issued per FU, per thread (Count)
board.processor.cores.core.issuedInstType_0::SimdPredAlu            0      0.00%     79.85% # Number of insts issued per FU, per thread (Count)
board.processor.cores.core.issuedInstType_0::SimdDotProd            0      0.00%     79.85% # Number of insts issued per FU, per thread (Count)
board.processor.cores.core.issuedInstType_0::Matrix            0      0.00%     79.85% # Number of insts issued per FU, per thread (Count)
board.processor.cores.core.issuedInstType_0::MatrixMov            0      0.00%     79.85% # Number of insts issued per FU, per thread (Count)
board.processor.cores.core.issuedInstType_0::MatrixOP            0      0.00%     79.85% # Number of insts issued per FU, per thread (Count)
board.processor.cores.core.issuedInstType_0::MemRead         1230      9.40%     89.25% # Number of insts issued per FU, per thread (Count)
board.processor.cores.core.issuedInstType_0::MemWrite         1191      9.10%     98.35% # Number of insts issued per FU, per thread (Count)
board.processor.cores.core.issuedInstType_0::FloatMemRead           48      0.37%     98.72% # Number of insts issued per FU, per thread (Count)
board.processor.cores.core.issuedInstType_0::FloatMemWrite          168      1.28%    100.00% # Number of insts issued per FU, per thread (Count)
board.processor.cores.core.issuedInstType_0::InstPrefetch            0      0.00%    100.00% # Number of insts issued per FU, per thread (Count)
board.processor.cores.core.issuedInstType_0::SimdUnitStrideLoad            0      0.00%    100.00% # Number of insts issued per FU, per thread (Count)
board.processor.cores.core.issuedInstType_0::SimdUnitStrideStore            0      0.00%    100.00% # Number of insts issued per FU, per thread (Count)
board.processor.cores.core.issuedInstType_0::SimdUnitStrideMaskLoad            0      0.00%    100.00% # Number of insts issued per FU, per thread (Count)
board.processor.cores.core.issuedInstType_0::SimdUnitStrideMaskStore            0      0.00%    100.00% # Number of insts issued per FU, per thread (Count)
board.processor.cores.core.issuedInstType_0::SimdStridedLoad            0      0.00%    100.00% # Number of insts issued per FU, per thread (Count)
board.processor.cores.core.issuedInstType_0::SimdStridedStore            0      0.00%    100.00% # Number of insts issued per FU, per thread (Count)
board.processor.cores.core.issuedInstType_0::SimdIndexedLoad            0      0.00%    100.00% # Number of insts issued per FU, per thread (Count)
board.processor.cores.core.issuedInstType_0::SimdIndexedStore            0      0.00%    100.00% # Number of insts issued per FU, per thread (Count)
board.processor.cores.core.issuedInstType_0::SimdWholeRegisterLoad            0      0.00%    100.00% # Number of insts issued per FU, per thread (Count)
board.processor.cores.core.issuedInstType_0::SimdWholeRegisterStore            0      0.00%    100.00% # Number of insts issued per FU, per thread (Count)
board.processor.cores.core.issuedInstType_0::SimdUnitStrideFaultOnlyFirstLoad            0      0.00%    100.00% # Number of insts issued per FU, per thread (Count)
board.processor.cores.core.issuedInstType_0::SimdUnitStrideSegmentedLoad            0      0.00%    100.00% # Number of insts issued per FU, per thread (Count)
board.processor.cores.core.issuedInstType_0::SimdUnitStrideSegmentedStore            0      0.00%    100.00% # Number of insts issued per FU, per thread (Count)
board.processor.cores.core.issuedInstType_0::SimdUnitStrideSegmentedFaultOnlyFirstLoad            0      0.00%    100.00% # Number of insts issued per FU, per thread (Count)
board.processor.cores.core.issuedInstType_0::SimdStrideSegmentedLoad            0      0.00%    100.00% # Number of insts issued per FU, per thread (Count)
board.processor.cores.core.issuedInstType_0::SimdStrideSegmentedStore            0      0.00%    100.00% # Number of insts issued per FU, per thread (Count)
board.processor.cores.core.issuedInstType_0::SimdExt            0      0.00%    100.00% # Number of insts issued per FU, per thread (Count)
board.processor.cores.core.issuedInstType_0::SimdFloatExt            0      0.00%    100.00% # Number of insts issued per FU, per thread (Count)
board.processor.cores.core.issuedInstType_0::SimdConfig            0      0.00%    100.00% # Number of insts issued per FU, per thread (Count)
board.processor.cores.core.issuedInstType_0::SimdBf16Add            0      0.00%    100.00% # Number of insts issued per FU, per thread (Count)
board.processor.cores.core.issuedInstType_0::SimdBf16Cmp            0      0.00%    100.00% # Number of insts issued per FU, per thread (Count)
board.processor.cores.core.issuedInstType_0::SimdBf16Cvt            0      0.00%    100.00% # Number of insts issued per FU, per thread (Count)
board.processor.cores.core.issuedInstType_0::SimdBf16DotProd            0      0.00%    100.00% # Number of insts issued per FU, per thread (Count)
board.processor.cores.core.issuedInstType_0::SimdBf16MatMultAcc            0      0.00%    100.00% # Number of insts issued per FU, per thread (Count)
board.processor.cores.core.issuedInstType_0::SimdBf16Mult            0      0.00%    100.00% # Number of insts issued per FU, per thread (Count)
board.processor.cores.core.issuedInstType_0::SimdBf16MultAcc            0      0.00%    100.00% # Number of insts issued per FU, per thread (Count)
board.processor.cores.core.issuedInstType_0::Bf16Cvt            0      0.00%    100.00% # Number of insts issued per FU, per thread (Count)
board.processor.cores.core.issuedInstType_0::System            0      0.00%    100.00% # Number of insts issued per FU, per thread (Count)
board.processor.cores.core.issuedInstType_0::total        13084                       # Number of insts issued per FU, per thread (Count)
board.processor.cores.core.commitStats0.numInsts         6598                       # Number of instructions committed (thread level) (Count)
board.processor.cores.core.commitStats0.numOps        13084                       # Number of ops (including micro ops) committed (thread level) (Count)
board.processor.cores.core.commitStats0.numInstsNotNOP         6598                       # Number of instructions committed excluding NOPs or prefetches (Count)
board.processor.cores.core.commitStats0.numOpsNotNOP        13084                       # Number of Ops (including micro ops) Simulated (Count)
board.processor.cores.core.commitStats0.numUserInsts         6598                       # Numbrer of instructions committed in user mode (Count)
board.processor.cores.core.commitStats0.numUserOps        13084                       # Number of ops committed in user mode (Count)
board.processor.cores.core.commitStats0.ratioUserInsts            1                       # Ratio of instructions committed in user mode (Ratio)
board.processor.cores.core.commitStats0.ratioUserOps            1                       # Ratio of ops committed in user mode (Ratio)
board.processor.cores.core.commitStats0.cpi   210.868445                       # CPI: cycles per instruction (thread level) ((Cycle/Count))
board.processor.cores.core.commitStats0.ipc     0.004742                       # IPC: instructions per cycle (thread level) ((Count/Cycle))
board.processor.cores.core.commitStats0.numMemRefs         2637                       # Number of memory references committed (Count)
board.processor.cores.core.commitStats0.numFpInsts          418                       # Number of float instructions (Count)
board.processor.cores.core.commitStats0.numIntInsts        12888                       # Number of integer instructions (Count)
board.processor.cores.core.commitStats0.numLoadInsts         1278                       # Number of load instructions (Count)
board.processor.cores.core.commitStats0.numStoreInsts         1359                       # Number of store instructions (Count)
board.processor.cores.core.commitStats0.numVecInsts            0                       # Number of vector instructions (Count)
board.processor.cores.core.commitStats0.committedInstType::No_OpClass           27      0.21%      0.21% # Class of committed instruction. (Count)
board.processor.cores.core.commitStats0.committedInstType::IntAlu        10201     77.97%     78.17% # Class of committed instruction. (Count)
board.processor.cores.core.commitStats0.committedInstType::IntMult            4      0.03%     78.20% # Class of committed instruction. (Count)
board.processor.cores.core.commitStats0.committedInstType::IntDiv           21      0.16%     78.36% # Class of committed instruction. (Count)
board.processor.cores.core.commitStats0.committedInstType::FloatAdd            2      0.02%     78.38% # Class of committed instruction. (Count)
board.processor.cores.core.commitStats0.committedInstType::FloatCmp            0      0.00%     78.38% # Class of committed instruction. (Count)
board.processor.cores.core.commitStats0.committedInstType::FloatCvt            0      0.00%     78.38% # Class of committed instruction. (Count)
board.processor.cores.core.commitStats0.committedInstType::FloatMult            0      0.00%     78.38% # Class of committed instruction. (Count)
board.processor.cores.core.commitStats0.committedInstType::FloatMultAcc            0      0.00%     78.38% # Class of committed instruction. (Count)
board.processor.cores.core.commitStats0.committedInstType::FloatDiv            0      0.00%     78.38% # Class of committed instruction. (Count)
board.processor.cores.core.commitStats0.committedInstType::FloatMisc            0      0.00%     78.38% # Class of committed instruction. (Count)
board.processor.cores.core.commitStats0.committedInstType::FloatSqrt            0      0.00%     78.38% # Class of committed instruction. (Count)
board.processor.cores.core.commitStats0.committedInstType::SimdAdd            0      0.00%     78.38% # Class of committed instruction. (Count)
board.processor.cores.core.commitStats0.committedInstType::SimdAddAcc            0      0.00%     78.38% # Class of committed instruction. (Count)
board.processor.cores.core.commitStats0.committedInstType::SimdAlu           82      0.63%     79.00% # Class of committed instruction. (Count)
board.processor.cores.core.commitStats0.committedInstType::SimdCmp            0      0.00%     79.00% # Class of committed instruction. (Count)
board.processor.cores.core.commitStats0.committedInstType::SimdCvt           48      0.37%     79.37% # Class of committed instruction. (Count)
board.processor.cores.core.commitStats0.committedInstType::SimdMisc           62      0.47%     79.85% # Class of committed instruction. (Count)
board.processor.cores.core.commitStats0.committedInstType::SimdMult            0      0.00%     79.85% # Class of committed instruction. (Count)
board.processor.cores.core.commitStats0.committedInstType::SimdMultAcc            0      0.00%     79.85% # Class of committed instruction. (Count)
board.processor.cores.core.commitStats0.committedInstType::SimdMatMultAcc            0      0.00%     79.85% # Class of committed instruction. (Count)
board.processor.cores.core.commitStats0.committedInstType::SimdShift            0      0.00%     79.85% # Class of committed instruction. (Count)
board.processor.cores.core.commitStats0.committedInstType::SimdShiftAcc            0      0.00%     79.85% # Class of committed instruction. (Count)
board.processor.cores.core.commitStats0.committedInstType::SimdDiv            0      0.00%     79.85% # Class of committed instruction. (Count)
board.processor.cores.core.commitStats0.committedInstType::SimdSqrt            0      0.00%     79.85% # Class of committed instruction. (Count)
board.processor.cores.core.commitStats0.committedInstType::SimdFloatAdd            0      0.00%     79.85% # Class of committed instruction. (Count)
board.processor.cores.core.commitStats0.committedInstType::SimdFloatAlu            0      0.00%     79.85% # Class of committed instruction. (Count)
board.processor.cores.core.commitStats0.committedInstType::SimdFloatCmp            0      0.00%     79.85% # Class of committed instruction. (Count)
board.processor.cores.core.commitStats0.committedInstType::SimdFloatCvt            0      0.00%     79.85% # Class of committed instruction. (Count)
board.processor.cores.core.commitStats0.committedInstType::SimdFloatDiv            0      0.00%     79.85% # Class of committed instruction. (Count)
board.processor.cores.core.commitStats0.committedInstType::SimdFloatMisc            0      0.00%     79.85% # Class of committed instruction. (Count)
board.processor.cores.core.commitStats0.committedInstType::SimdFloatMult            0      0.00%     79.85% # Class of committed instruction. (Count)
board.processor.cores.core.commitStats0.committedInstType::SimdFloatMultAcc            0      0.00%     79.85% # Class of committed instruction. (Count)
board.processor.cores.core.commitStats0.committedInstType::SimdFloatMatMultAcc            0      0.00%     79.85% # Class of committed instruction. (Count)
board.processor.cores.core.commitStats0.committedInstType::SimdFloatSqrt            0      0.00%     79.85% # Class of committed instruction. (Count)
board.processor.cores.core.commitStats0.committedInstType::SimdReduceAdd            0      0.00%     79.85% # Class of committed instruction. (Count)
board.processor.cores.core.commitStats0.committedInstType::SimdReduceAlu            0      0.00%     79.85% # Class of committed instruction. (Count)
board.processor.cores.core.commitStats0.committedInstType::SimdReduceCmp            0      0.00%     79.85% # Class of committed instruction. (Count)
board.processor.cores.core.commitStats0.committedInstType::SimdFloatReduceAdd            0      0.00%     79.85% # Class of committed instruction. (Count)
board.processor.cores.core.commitStats0.committedInstType::SimdFloatReduceCmp            0      0.00%     79.85% # Class of committed instruction. (Count)
board.processor.cores.core.commitStats0.committedInstType::SimdAes            0      0.00%     79.85% # Class of committed instruction. (Count)
board.processor.cores.core.commitStats0.committedInstType::SimdAesMix            0      0.00%     79.85% # Class of committed instruction. (Count)
board.processor.cores.core.commitStats0.committedInstType::SimdSha1Hash            0      0.00%     79.85% # Class of committed instruction. (Count)
board.processor.cores.core.commitStats0.committedInstType::SimdSha1Hash2            0      0.00%     79.85% # Class of committed instruction. (Count)
board.processor.cores.core.commitStats0.committedInstType::SimdSha256Hash            0      0.00%     79.85% # Class of committed instruction. (Count)
board.processor.cores.core.commitStats0.committedInstType::SimdSha256Hash2            0      0.00%     79.85% # Class of committed instruction. (Count)
board.processor.cores.core.commitStats0.committedInstType::SimdShaSigma2            0      0.00%     79.85% # Class of committed instruction. (Count)
board.processor.cores.core.commitStats0.committedInstType::SimdShaSigma3            0      0.00%     79.85% # Class of committed instruction. (Count)
board.processor.cores.core.commitStats0.committedInstType::SimdSha3            0      0.00%     79.85% # Class of committed instruction. (Count)
board.processor.cores.core.commitStats0.committedInstType::SimdSm4e            0      0.00%     79.85% # Class of committed instruction. (Count)
board.processor.cores.core.commitStats0.committedInstType::SimdCrc            0      0.00%     79.85% # Class of committed instruction. (Count)
board.processor.cores.core.commitStats0.committedInstType::SimdPredAlu            0      0.00%     79.85% # Class of committed instruction. (Count)
board.processor.cores.core.commitStats0.committedInstType::SimdDotProd            0      0.00%     79.85% # Class of committed instruction. (Count)
board.processor.cores.core.commitStats0.committedInstType::Matrix            0      0.00%     79.85% # Class of committed instruction. (Count)
board.processor.cores.core.commitStats0.committedInstType::MatrixMov            0      0.00%     79.85% # Class of committed instruction. (Count)
board.processor.cores.core.commitStats0.committedInstType::MatrixOP            0      0.00%     79.85% # Class of committed instruction. (Count)
board.processor.cores.core.commitStats0.committedInstType::MemRead         1230      9.40%     89.25% # Class of committed instruction. (Count)
board.processor.cores.core.commitStats0.committedInstType::MemWrite         1191      9.10%     98.35% # Class of committed instruction. (Count)
board.processor.cores.core.commitStats0.committedInstType::FloatMemRead           48      0.37%     98.72% # Class of committed instruction. (Count)
board.processor.cores.core.commitStats0.committedInstType::FloatMemWrite          168      1.28%    100.00% # Class of committed instruction. (Count)
board.processor.cores.core.commitStats0.committedInstType::InstPrefetch            0      0.00%    100.00% # Class of committed instruction. (Count)
board.processor.cores.core.commitStats0.committedInstType::SimdUnitStrideLoad            0      0.00%    100.00% # Class of committed instruction. (Count)
board.processor.cores.core.commitStats0.committedInstType::SimdUnitStrideStore            0      0.00%    100.00% # Class of committed instruction. (Count)
board.processor.cores.core.commitStats0.committedInstType::SimdUnitStrideMaskLoad            0      0.00%    100.00% # Class of committed instruction. (Count)
board.processor.cores.core.commitStats0.committedInstType::SimdUnitStrideMaskStore            0      0.00%    100.00% # Class of committed instruction. (Count)
board.processor.cores.core.commitStats0.committedInstType::SimdStridedLoad            0      0.00%    100.00% # Class of committed instruction. (Count)
board.processor.cores.core.commitStats0.committedInstType::SimdStridedStore            0      0.00%    100.00% # Class of committed instruction. (Count)
board.processor.cores.core.commitStats0.committedInstType::SimdIndexedLoad            0      0.00%    100.00% # Class of committed instruction. (Count)
board.processor.cores.core.commitStats0.committedInstType::SimdIndexedStore            0      0.00%    100.00% # Class of committed instruction. (Count)
board.processor.cores.core.commitStats0.committedInstType::SimdWholeRegisterLoad            0      0.00%    100.00% # Class of committed instruction. (Count)
board.processor.cores.core.commitStats0.committedInstType::SimdWholeRegisterStore            0      0.00%    100.00% # Class of committed instruction. (Count)
board.processor.cores.core.commitStats0.committedInstType::SimdUnitStrideFaultOnlyFirstLoad            0      0.00%    100.00% # Class of committed instruction. (Count)
board.processor.cores.core.commitStats0.committedInstType::SimdUnitStrideSegmentedLoad            0      0.00%    100.00% # Class of committed instruction. (Count)
board.processor.cores.core.commitStats0.committedInstType::SimdUnitStrideSegmentedStore            0      0.00%    100.00% # Class of committed instruction. (Count)
board.processor.cores.core.commitStats0.committedInstType::SimdUnitStrideSegmentedFaultOnlyFirstLoad            0      0.00%    100.00% # Class of committed instruction. (Count)
board.processor.cores.core.commitStats0.committedInstType::SimdStrideSegmentedLoad            0      0.00%    100.00% # Class of committed instruction. (Count)
board.processor.cores.core.commitStats0.committedInstType::SimdStrideSegmentedStore            0      0.00%    100.00% # Class of committed instruction. (Count)
board.processor.cores.core.commitStats0.committedInstType::SimdExt            0      0.00%    100.00% # Class of committed instruction. (Count)
board.processor.cores.core.commitStats0.committedInstType::SimdFloatExt            0      0.00%    100.00% # Class of committed instruction. (Count)
board.processor.cores.core.commitStats0.committedInstType::SimdConfig            0      0.00%    100.00% # Class of committed instruction. (Count)
board.processor.cores.core.commitStats0.committedInstType::SimdBf16Add            0      0.00%    100.00% # Class of committed instruction. (Count)
board.processor.cores.core.commitStats0.committedInstType::SimdBf16Cmp            0      0.00%    100.00% # Class of committed instruction. (Count)
board.processor.cores.core.commitStats0.committedInstType::SimdBf16Cvt            0      0.00%    100.00% # Class of committed instruction. (Count)
board.processor.cores.core.commitStats0.committedInstType::SimdBf16DotProd            0      0.00%    100.00% # Class of committed instruction. (Count)
board.processor.cores.core.commitStats0.committedInstType::SimdBf16MatMultAcc            0      0.00%    100.00% # Class of committed instruction. (Count)
board.processor.cores.core.commitStats0.committedInstType::SimdBf16Mult            0      0.00%    100.00% # Class of committed instruction. (Count)
board.processor.cores.core.commitStats0.committedInstType::SimdBf16MultAcc            0      0.00%    100.00% # Class of committed instruction. (Count)
board.processor.cores.core.commitStats0.committedInstType::Bf16Cvt            0      0.00%    100.00% # Class of committed instruction. (Count)
board.processor.cores.core.commitStats0.committedInstType::System            0      0.00%    100.00% # Class of committed instruction. (Count)
board.processor.cores.core.commitStats0.committedInstType::total        13084                       # Class of committed instruction. (Count)
board.processor.cores.core.commitStats0.committedControl::IsControl         1496                       # Class of control type instructions committed (Count)
board.processor.cores.core.commitStats0.committedControl::IsDirectControl         1313                       # Class of control type instructions committed (Count)
board.processor.cores.core.commitStats0.committedControl::IsIndirectControl          183                       # Class of control type instructions committed (Count)
board.processor.cores.core.commitStats0.committedControl::IsCondControl         1121                       # Class of control type instructions committed (Count)
board.processor.cores.core.commitStats0.committedControl::IsUncondControl          375                       # Class of control type instructions committed (Count)
board.processor.cores.core.commitStats0.committedControl::IsCall          127                       # Class of control type instructions committed (Count)
board.processor.cores.core.commitStats0.committedControl::IsReturn          122                       # Class of control type instructions committed (Count)
board.processor.cores.core.commitStats0.functionCalls          127                       # Number of function calls committed (Count)
board.processor.cores.core.commitStats0.numCallsReturns          249                       # Number of function calls and returns committed (Count)
board.processor.cores.core.exec_context.thread_0.numMatAluAccesses            0                       # Number of matrix alu accesses (Count)
board.processor.cores.core.exec_context.thread_0.numMatInsts            0                       # Number of matrix instructions (Count)
board.processor.cores.core.exec_context.thread_0.numIdleCycles     0.003003                       # Number of idle cycles (Cycle)
board.processor.cores.core.exec_context.thread_0.numBusyCycles 1391309.996997                       # Number of busy cycles (Cycle)
board.processor.cores.core.exec_context.thread_0.notIdleFraction     1.000000                       # Percentage of non-idle cycles (Ratio)
board.processor.cores.core.exec_context.thread_0.idleFraction     0.000000                       # Percentage of idle cycles (Ratio)
board.processor.cores.core.executeStats0.numInsts         6598                       # Number of executed instructions (Count)
board.processor.cores.core.executeStats0.numNop            0                       # Number of nop insts executed (Count)
board.processor.cores.core.executeStats0.numBranches         1496                       # Number of branches executed (Count)
board.processor.cores.core.executeStats0.numLoadInsts         1278                       # Number of load instructions executed (Count)
board.processor.cores.core.executeStats0.numStoreInsts         1359                       # Number of stores executed (Count)
board.processor.cores.core.executeStats0.instRate     0.004742                       # Inst execution rate ((Count/Cycle))
board.processor.cores.core.executeStats0.numCCRegReads         6841                       # Number of times the CC registers were read (Count)
board.processor.cores.core.executeStats0.numCCRegWrites         4197                       # Number of times the CC registers were written (Count)
board.processor.cores.core.executeStats0.numFpAluAccesses          418                       # Number of float alu accesses (Count)
board.processor.cores.core.executeStats0.numFpRegReads          569                       # Number of times the floating registers were read (Count)
board.processor.cores.core.executeStats0.numFpRegWrites          202                       # Number of times the floating registers were written (Count)
board.processor.cores.core.executeStats0.numIntAluAccesses        12888                       # Number of integer alu accesses (Count)
board.processor.cores.core.executeStats0.numIntRegReads        14354                       # Number of times the integer registers were read (Count)
board.processor.cores.core.executeStats0.numIntRegWrites         8941                       # Number of times the integer registers were written (Count)
board.processor.cores.core.executeStats0.numMemRefs         2637                       # Number of memory refs (Count)
board.processor.cores.core.executeStats0.numMiscRegReads         5736                       # Number of times the Misc registers were read (Count)
board.processor.cores.core.executeStats0.numVecAluAccesses            0                       # Number of vector alu accesses (Count)
board.processor.cores.core.executeStats0.numDiscardedOps            0                       # Number of ops (including micro ops) which were discarded before commit (Count)
board.processor.cores.core.fetchStats0.numInsts         6611                       # Number of instructions fetched (thread level) (Count)
board.processor.cores.core.fetchStats0.numOps        13098                       # Number of ops (including micro ops) fetched (thread level) (Count)
board.processor.cores.core.fetchStats0.fetchRate     0.004752                       # Number of inst fetches per cycle ((Count/Cycle))
board.processor.cores.core.fetchStats0.numBranches         1496                       # Number of branches fetched (Count)
board.processor.cores.core.fetchStats0.branchRate     0.001075                       # Number of branch fetches per cycle (Ratio)
board.processor.cores.core.fetchStats0.numFetchSuspends            0                       # Number of times Execute suspended instruction fetching (Count)
board.processor.cores.core.interrupts.clk_domain.clock         5328                       # Clock period in ticks (Tick)
board.processor.cores.core.mmu.dtb.rdAccesses         1284                       # TLB accesses on read requests (Count)
board.processor.cores.core.mmu.dtb.wrAccesses         1362                       # TLB accesses on write requests (Count)
board.processor.cores.core.mmu.dtb.exAccesses            0                       # TLB accesses on execute (instr) requests (Count)
board.processor.cores.core.mmu.dtb.rdMisses           11                       # TLB misses on read requests (Count)
board.processor.cores.core.mmu.dtb.wrMisses           11                       # TLB misses on write requests (Count)
board.processor.cores.core.mmu.dtb.exMisses            0                       # TLB misses on execute (instr) requests (Count)
board.processor.cores.core.mmu.dtb.walker.power_state.pwrStateResidencyTicks::UNDEFINED    463306230                       # Cumulative time (in ticks) in various power states (Tick)
board.processor.cores.core.mmu.itb.rdAccesses            0                       # TLB accesses on read requests (Count)
board.processor.cores.core.mmu.itb.wrAccesses            0                       # TLB accesses on write requests (Count)
board.processor.cores.core.mmu.itb.exAccesses         8619                       # TLB accesses on execute (instr) requests (Count)
board.processor.cores.core.mmu.itb.rdMisses            0                       # TLB misses on read requests (Count)
board.processor.cores.core.mmu.itb.wrMisses            0                       # TLB misses on write requests (Count)
board.processor.cores.core.mmu.itb.exMisses           39                       # TLB misses on execute (instr) requests (Count)
board.processor.cores.core.mmu.itb.walker.power_state.pwrStateResidencyTicks::UNDEFINED    463306230                       # Cumulative time (in ticks) in various power states (Tick)
board.processor.cores.core.power_state.pwrStateResidencyTicks::ON    463306230                       # Cumulative time (in ticks) in various power states (Tick)
board.processor.cores.core.thread_0.numInsts         6598                       # Number of Instructions committed (Count)
board.processor.cores.core.thread_0.numOps        13084                       # Number of Ops committed (Count)
board.processor.cores.core.thread_0.numMemRefs         2637                       # Number of Memory References (Count)
board.processor.cores.core.workload.numSyscalls           11                       # Number of system calls (Count)
board.workload.inst.arm                             0                       # number of arm instructions executed (Count)
board.workload.inst.quiesce                         0                       # number of quiesce instructions executed (Count)

---------- End Simulation Statistics   ----------
